pglib_opf_case10480_goc/pglib_opf_case10480_goc_10regions.m
% -------------------------------------------------------------------------
% Partitioned MATPOWER Case File
% Copyright (c) 2025 Milad Hasanzadeh
% Generated on: 2026-05-23
% This file contains partitioned data for 10 regions


% -------------------- mpc_regionR1 --------------------

mpc_regionR1.version = '2';
mpc_regionR1.baseMVA = 100.0000;
mpc_regionR1.bus = [
%	bus_i       type        Pd          Qd          Gs          Bs          area        Vm          Va          baseKV      zone        Vmax        Vmin        
	 1	 2	 0	 0	 0	 0	 1	 1	 0	 138	 2138	 1.1	 0.9;
	 2	 2	 0	 0	 0	-180.249216316	 1	 1	 0	 345	 2	 1.1	 0.9;
	 3	 2	 0	 0	 0	 0	 1	 1	 0	 345	 2	 1.1	 0.9;
	 4	 2	 0	 0	 0	 0	 1	 1	 0	 138	 2138	 1.1	 0.9;
	 5	 1	 0	 0	 0	 0	 1	 1	 0	 345	 1	 1.1	 0.9;
	 6	 1	 0	 0	 0	 0	 1	 1	 0	 138	 2138	 1.1	 0.9;
	 7	 1	 0	 0	 0	 0	 1	 1	 0	 345	 1	 1.1	 0.9;
	 8	 1	 0	 0	 0	 0	 1	 1	 0	 345	 1	 1.1	 0.9;
	 9	 1	 0	 0	 0	 0	 1	 1	 0	 230	 1	 1.1	 0.9;
	 10	 2	 0	 0	 0	 0	 1	 1	 0	 138	 2138	 1.1	 0.9;
	 11	 1	 0	 0	 0	 0	 1	 1	 0	 230	 1	 1.1	 0.9;
	 12	 1	 250	 100	 0	 0	 1	 1	 0	 345	 1	 1.1	 0.9;
	 13	 1	 0	 0	 0	 0	 1	 1	 0	 138	 2138	 1.1	 0.9;
	 14	 1	 0	 0	 0	 0	 1	 1	 0	 345	 1	 1.1	 0.9;
	 15	 2	 0	 0	 0	 0	 1	 1	 0	 345	 2	 1.1	 0.9;
	 16	 2	 0	 0	 0	 0	 1	 1	 0	 138	 2138	 1.1	 0.9;
	 17	 1	 0	 0	 0	 0	 1	 1	 0	 345	 1	 1.1	 0.9;
	 18	 1	 0	 0	 0	 0	 1	 1	 0	 345	 1	 1.1	 0.9;
	 19	 2	 0	 0	 0	 0	 1	 1	 0	 345	 2	 1.1	 0.9;
	 20	 2	 0	 0	 0	 0	 1	 1	 0	 138	 2138	 1.1	 0.9;
	 21	 1	 0	 0	 0	 0	 1	 1	 0	 138	 2138	 1.1	 0.9;
	 22	 2	 0	 0	 0	 0	 1	 1	 0	 138	 2138	 1.1	 0.9;
	 23	 2	 0	 0	 0	 0	 1	 1	 0	 138	 2138	 1.1	 0.9;
	 24	 1	 0	 0	 0	 0	 1	 1	 0	 230	 1	 1.1	 0.9;
	 25	 1	 0	 0	 0	 0	 1	 1	 0	 345	 2	 1.1	 0.9;
	 26	 2	 0	 0	 0	 0	 1	 1	 0	 138	 2138	 1.1	 0.9;
	 27	 1	 0	 0	 0	 0	 1	 1	 0	 138	 138	 1.1	 0.9;
	 28	 1	 0	 0	 0	 0	 1	 1	 0	 345	 1	 1.1	 0.9;
	 29	 2	 0	 0	 0	 0	 1	 1	 0	 138	 2138	 1.1	 0.9;
	 30	 2	 0	 0	 0	 0	 1	 1	 0	 138	 2138	 1.1	 0.9;
	 31	 1	 0	 0	 0	 0	 1	 1	 0	 69	 269	 1.1	 0.9;
	 32	 1	 0	 0	 0	 0	 1	 1	 0	 345	 1	 1.1	 0.9;
	 33	 1	 0	 0	 0	 0	 1	 1	 0	 230	 1	 1.1	 0.9;
	 34	 2	 10	 0	 0	 0	 1	 1	 0	 138	 2138	 1.1	 0.9;
	 35	 1	 0	 0	 0	 0	 1	 1	 0	 69	 269	 1.1	 0.9;
	 36	 1	 0	 0	 0	 0	 1	 1	 0	 138	 138	 1.1	 0.9;
	 37	 2	 0	 0	 0	 0	 1	 1	 0	 345	 2	 1.1	 0.9;
	 38	 1	 69.18	 12.42	 0	 0	 1	 1	 0	 138	 138	 1.1	 0.9;
	 39	 1	 0	 0	 0	 0	 1	 1	 0	 138	 138	 1.1	 0.9;
	 40	 1	 14.404	 4.608	 0	 0	 1	 1	 0	 138	 138	 1.1	 0.9;
	 41	 1	 14.007	 3.648	 0	 0	 1	 1	 0	 138	 138	 1.1	 0.9;
	 42	 1	 5.742	 1.469	 0	 0	 1	 1	 0	 138	 138	 1.1	 0.9;
	 43	 1	 2.677	 0.71	 0	 0	 1	 1	 0	 138	 138	 1.1	 0.9;
	 44	 1	 16.558	 4.291	 0	 0	 1	 1	 0	 138	 138	 1.1	 0.9;
	 45	 1	 3.469	 0.914	 0	 0	 1	 1	 0	 69	 69	 1.1	 0.9;
	 46	 1	 7.704	 1.985	 0	 0	 1	 1	 0	 69	 69	 1.1	 0.9;
	 47	 1	 3.595	 0.934	 0	 0	 1	 1	 0	 69	 69	 1.1	 0.9;
	 48	 1	 16.825	 4.378	 0	 13.0676624135	 1	 1	 0	 69	 69	 1.1	 0.9;
	 49	 1	 11.365	 2.925	 0	-4.59741633071	 1	 1	 0	 69	 69	 1.1	 0.9;
	 50	 1	 6.049	 1.606	 0	 7.30233772499	 1	 1	 0	 69	 69	 1.1	 0.9;
	 51	 1	 7.421	 1.971	 0	 5.69577084144	 1	 1	 0	 69	 69	 1.1	 0.9;
	 52	 1	 11.601	 3.034	 0	 0	 1	 1	 0	 138	 138	 1.1	 0.9;
	 53	 1	 0	 0	 0	 0	 1	 1	 0	 138	 138	 1.1	 0.9;
	 54	 1	 10.67	 2.803	 0	 0	 1	 1	 0	 138	 138	 1.1	 0.9;
	 55	 1	 9.341	 2.429	 0	 0	 1	 1	 0	 138	 138	 1.1	 0.9;
	 56	 1	 8.07	 2.131	 0	 0	 1	 1	 0	 138	 138	 1.1	 0.9;
	 57	 1	 17.693	 4.579	 0	 0	 1	 1	 0	 230	 1	 1.1	 0.9;
	 58	 1	 1092.364	 315.278	 0	 0	 1	 1	 0	 345	 1	 1.1	 0.9;
	 59	 1	 109.728	 27.167	 0	 0	 1	 1	 0	 230	 1	 1.1	 0.9;
	 60	 1	 17.276	 4.445	 0	 0	 1	 1	 0	 138	 138	 1.1	 0.9;
	 61	 1	 0	 0	 0	 0	 1	 1	 0	 138	 138	 1.1	 0.9;
	 62	 1	 8.502	 2.18	 0	 0	 1	 1	 0	 69	 69	 1.1	 0.9;
	 63	 1	 6.751	 1.786	 0	 0	 1	 1	 0	 138	 138	 1.1	 0.9;
	 64	 1	 5.303	 1.371	 0	 0	 1	 1	 0	 69	 69	 1.1	 0.9;
	 65	 1	 0	 0	 0	 0	 1	 1	 0	 230	 1	 1.1	 0.9;
	 66	 1	 0	 0	 0	 0	 1	 1	 0	 345	 1	 1.1	 0.9;
	 67	 1	 0	 0	 0	 0	 1	 1	 0	 230	 1	 1.1	 0.9;
	 68	 1	 3.7	 0.96	 0	 0	 1	 1	 0	 69	 69	 1.1	 0.9;
	 69	 1	 3.414	 0.883	 0	 0	 1	 1	 0	 138	 138	 1.1	 0.9;
	 70	 1	 2.328	 0.614	 0	 0	 1	 1	 0	 138	 138	 1.1	 0.9;
	 71	 1	 0	 0	 0	 0	 1	 1	 0	 138	 138	 1.1	 0.9;
	 72	 1	 8.614	 2.266	 0	 0	 1	 1	 0	 138	 138	 1.1	 0.9;
	 73	 1	 6.101	 1.619	 0	 0	 1	 1	 0	 69	 69	 1.1	 0.9;
	 74	 1	 6.425	 1.658	 0	 0	 1	 1	 0	 69	 69	 1.1	 0.9;
	 75	 1	 6.088	 1.573	 0	 0	 1	 1	 0	 69	 69	 1.1	 0.9;
	 76	 1	 0	 0	 0	 0	 1	 1	 0	 138	 138	 1.1	 0.9;
	 77	 1	 0	 0	 0	 0	 1	 1	 0	 138	 138	 1.1	 0.9;
	 78	 1	 5.364	 1.373	 0	 0	 1	 1	 0	 138	 138	 1.1	 0.9;
	 79	 1	 0	 0	 0	 0	 1	 1	 0	 138	 138	 1.1	 0.9;
	 80	 1	 0	 0	 0	 0	 1	 1	 0	 138	 138	 1.1	 0.9;
	 81	 1	 7.836	 2.069	 0	 0	 1	 1	 0	 69	 69	 1.1	 0.9;
	 82	 1	 7.091	 1.891	 0	 0	 1	 1	 0	 138	 138	 1.1	 0.9;
	 83	 1	 0	 0	 0	 0	 1	 1	 0	 138	 138	 1.1	 0.9;
	 84	 1	 0	 0	 0	 0	 1	 1	 0	 138	 138	 1.1	 0.9;
	 85	 1	 15.787	 4.07	 0	 0	 1	 1	 0	 69	 69	 1.1	 0.9;
	 86	 1	 11.048	 2.88	 0	 0	 1	 1	 0	 138	 138	 1.1	 0.9;
	 87	 1	 0	 0	 0	 0	 1	 1	 0	 138	 138	 1.1	 0.9;
	 88	 1	 5.336	 1.423	 0	 0	 1	 1	 0	 69	 69	 1.1	 0.9;
	 89	 1	 2.19	 0.574	 0	 0	 1	 1	 0	 69	 69	 1.1	 0.9;
	 90	 1	 0	 0	 0	 0	 1	 1	 0	 138	 138	 1.1	 0.9;
	 91	 1	 7.895	 2.024	 0	 0	 1	 1	 0	 69	 69	 1.1	 0.9;
	 92	 1	 5.29	 1.351	 0	 0	 1	 1	 0	 69	 69	 1.1	 0.9;
	 93	 1	 8.416	 2.233	 0	 0	 1	 1	 0	 69	 69	 1.1	 0.9;
	 94	 1	 3.661	 0.953	 0	 0	 1	 1	 0	 69	 69	 1.1	 0.9;
	 95	 1	 2.909	 0.777	 0	 0	 1	 1	 0	 69	 69	 1.1	 0.9;
	 96	 1	 5.072	 1.325	 0	 0	 1	 1	 0	 69	 69	 1.1	 0.9;
	 97	 1	 5.033	 1.293	 0	 0	 1	 1	 0	 69	 69	 1.1	 0.9;
	 98	 1	 7.229	 1.893	 0	 0	 1	 1	 0	 69	 69	 1.1	 0.9;
	 99	 1	 2.315	 0.607	 0	 0	 1	 1	 0	 69	 69	 1.1	 0.9;
	 100	 1	 2.909	 0.764	 0	 0	 1	 1	 0	 69	 69	 1.1	 0.9;
	 101	 1	 2.856	 0.744	 0	 0	 1	 1	 0	 69	 69	 1.1	 0.9;
	 102	 1	 3.483	 0.894	 0	 0	 1	 1	 0	 69	 69	 1.1	 0.9;
	 103	 1	 3.707	 0.966	 0	 0	 1	 1	 0	 69	 69	 1.1	 0.9;
	 104	 1	 4.188	 1.116	 0	 0	 1	 1	 0	 69	 69	 1.1	 0.9;
	 105	 1	 2.315	 0.607	 0	 0	 1	 1	 0	 69	 69	 1.1	 0.9;
	 106	 1	 9.795	 2.513	 0	 0	 1	 1	 0	 69	 69	 1.1	 0.9;
	 107	 1	 3.245	 0.862	 0	 0	 1	 1	 0	 69	 69	 1.1	 0.9;
	 108	 1	 2.625	 0.679	 0	 0	 1	 1	 0	 69	 69	 1.1	 0.9;
	 109	 1	 0	 0	 0	 0	 1	 1	 0	 138	 138	 1.1	 0.9;
	 110	 1	 3.681	 0.966	 0	 0	 1	 1	 0	 69	 69	 1.1	 0.9;
	 111	 1	 3.661	 0.934	 0	 0	 1	 1	 0	 69	 69	 1.1	 0.9;
	 112	 1	 3.285	 0.842	 0	 0	 1	 1	 0	 69	 69	 1.1	 0.9;
	 113	 1	 3.562	 0.934	 0	 0	 1	 1	 0	 69	 69	 1.1	 0.9;
	 114	 1	 3.714	 0.966	 0	 0	 1	 1	 0	 69	 69	 1.1	 0.9;
	 115	 1	 15.047	 4.109	 0	 0	 1	 1	 0	 69	 69	 1.1	 0.9;
	 116	 1	 0	 0	 0	 0	 1	 1	 0	 138	 138	 1.1	 0.9;
	 117	 1	 9.07	 2.376	 0	 0	 1	 1	 0	 69	 69	 1.1	 0.9;
	 118	 1	 0	 0	 0	 0	 1	 1	 0	 138	 138	 1.1	 0.9;
	 119	 1	 3.582	 1.175	 0	 0	 1	 1	 0	 69	 69	 1.1	 0.9;
	 120	 1	 0	 0	 0	 0	 1	 1	 0	 138	 138	 1.1	 0.9;
	 121	 1	 0	 0	 0	 0	 1	 1	 0	 138	 138	 1.1	 0.9;
	 122	 1	 0	 0	 0	 0	 1	 1	 0	 138	 138	 1.1	 0.9;
	 123	 1	 0	 0	 0	 0	 1	 1	 0	 138	 138	 1.1	 0.9;
	 124	 1	 6.218	 1.613	 0	 0	 1	 1	 0	 69	 69	 1.1	 0.9;
	 125	 1	 4.492	 1.162	 0	 0	 1	 1	 0	 69	 69	 1.1	 0.9;
	 126	 1	 0	 0	 0	 0	 1	 1	 0	 138	 138	 1.1	 0.9;
	 127	 1	 17.906	 4.666	 0	 0	 1	 1	 0	 138	 138	 1.1	 0.9;
	 128	 1	 12.3	 3.168	 0	 0	 1	 1	 0	 69	 69	 1.1	 0.9;
	 129	 1	 0	 0	 0	 0	 1	 1	 0	 345	 1	 1.1	 0.9;
	 130	 1	 10.592	 2.736	 0	 0	 1	 1	 0	 69	 69	 1.1	 0.9;
	 131	 1	 4.116	 1.058	 0	 0	 1	 1	 0	 69	 69	 1.1	 0.9;
	 132	 1	 5.29	 1.377	 0	 0	 1	 1	 0	 69	 69	 1.1	 0.9;
	 133	 1	 12.649	 3.322	 0	 0	 1	 1	 0	 138	 138	 1.1	 0.9;
	 134	 1	 6.385	 1.632	 0	 0	 1	 1	 0	 69	 69	 1.1	 0.9;
	 135	 1	 0	 0	 0	 0	 1	 1	 0	 138	 138	 1.1	 0.9;
	 136	 1	 7.025	 1.821	 0	 0	 1	 1	 0	 69	 69	 1.1	 0.9;
	 137	 1	 5.026	 1.332	 0	 0	 1	 1	 0	 69	 69	 1.1	 0.9;
	 138	 1	 0	 0	 0	 0	 1	 1	 0	 138	 138	 1.1	 0.9;
	 139	 1	 9.017	 2.35	 0	 0	 1	 1	 0	 69	 69	 1.1	 0.9;
	 140	 1	 0	 0	 0	 0	 1	 1	 0	 138	 138	 1.1	 0.9;
	 141	 1	 3.951	 1.051	 0	 0	 1	 1	 0	 69	 69	 1.1	 0.9;
	 142	 1	 8.219	 2.174	 0	 0	 1	 1	 0	 69	 69	 1.1	 0.9;
	 143	 1	 7.117	 2.265	 0	 0	 1	 1	 0	 69	 69	 1.1	 0.9;
	 144	 1	 0	 0	 0	 0	 1	 1	 0	 138	 138	 1.1	 0.9;
	 145	 1	 0	 0	 0	 0	 1	 1	 0	 138	 138	 1.1	 0.9;
	 146	 1	 2.276	 0.601	 0	 0	 1	 1	 0	 69	 69	 1.1	 0.9;
	 147	 1	 0	 0	 0	 0	 1	 1	 0	 138	 138	 1.1	 0.9;
	 148	 1	 13.134	 3.446	 0	 0	 1	 1	 0	 138	 138	 1.1	 0.9;
	 149	 1	 7.361	 1.932	 0	 0	 1	 1	 0	 69	 69	 1.1	 0.9;
	 150	 1	 0	 0	 0	 0	 1	 1	 0	 138	 138	 1.1	 0.9;
	 151	 1	 10.893	 2.832	 0	 0	 1	 1	 0	 138	 138	 1.1	 0.9;
	 152	 1	 12.229	 3.238	 0	 0	 1	 1	 0	 69	 69	 1.1	 0.9;
	 153	 1	 6.965	 1.824	 0	 0	 1	 1	 0	 138	 138	 1.1	 0.9;
	 154	 1	 12.484	 3.226	 0	 0	 1	 1	 0	 138	 138	 1.1	 0.9;
	 155	 1	 6.748	 1.756	 0	 0	 1	 1	 0	 69	 69	 1.1	 0.9;
	 156	 1	 0	 0	 0	 0	 1	 1	 0	 138	 138	 1.1	 0.9;
	 157	 1	 5.527	 1.456	 0	 0	 1	 1	 0	 69	 69	 1.1	 0.9;
	 158	 1	 0	 0	 0	 0	 1	 1	 0	 138	 138	 1.1	 0.9;
	 159	 1	 4.09	 1.051	 0	 0	 1	 1	 0	 69	 69	 1.1	 0.9;
	 160	 1	 6.497	 2.109	 0	 0	 1	 1	 0	 69	 69	 1.1	 0.9;
	 161	 1	 8.034	 2.109	 0	 0	 1	 1	 0	 69	 69	 1.1	 0.9;
	 162	 1	 13.957	 3.251	 0	 0	 1	 1	 0	 69	 69	 1.1	 0.9;
	 163	 1	 0	 0	 0	 0	 1	 1	 0	 138	 138	 1.1	 0.9;
	 164	 1	 4.426	 1.149	 0	 0	 1	 1	 0	 69	 69	 1.1	 0.9;
	 165	 1	 8.238	 2.109	 0	 0	 1	 1	 0	 69	 69	 1.1	 0.9;
	 166	 1	 4.195	 1.097	 0	 0	 1	 1	 0	 69	 69	 1.1	 0.9;
	 167	 1	 0	 0	 0	 0	 1	 1	 0	 138	 138	 1.1	 0.9;
	 168	 1	 10.811	 2.827	 0	 0	 1	 1	 0	 69	 69	 1.1	 0.9;
	 169	 1	 5.02	 1.332	 0	 0	 1	 1	 0	 69	 69	 1.1	 0.9;
	 170	 1	 4.254	 1.129	 0	 0	 1	 1	 0	 69	 69	 1.1	 0.9;
	 171	 1	 7.203	 1.88	 0	 0	 1	 1	 0	 69	 69	 1.1	 0.9;
	 172	 1	 7.084	 1.815	 0	 0	 1	 1	 0	 69	 69	 1.1	 0.9;
	 173	 1	 8.555	 2.226	 0	 0	 1	 1	 0	 69	 69	 1.1	 0.9;
	 174	 1	 5.396	 1.377	 0	 0	 1	 1	 0	 69	 69	 1.1	 0.9;
	 175	 1	 9.452	 2.507	 0	 0	 1	 1	 0	 69	 69	 1.1	 0.9;
	 176	 1	 7.058	 1.815	 0	 0	 1	 1	 0	 69	 69	 1.1	 0.9;
	 177	 1	 5.461	 1.436	 0	 0	 1	 1	 0	 69	 69	 1.1	 0.9;
	 178	 1	 9.347	 2.428	 0	 0	 1	 1	 0	 69	 69	 1.1	 0.9;
	 179	 1	 3.437	 0.894	 0	 0	 1	 1	 0	 69	 69	 1.1	 0.9;
	 180	 1	 0	 0	 0	 0	 1	 1	 0	 138	 138	 1.1	 0.9;
	 181	 1	 3.76	 0.992	 0	 0	 1	 1	 0	 69	 69	 1.1	 0.9;
	 182	 1	 8.509	 2.213	 0	 0	 1	 1	 0	 69	 69	 1.1	 0.9;
	 183	 1	 0	 0	 0	 0	 1	 1	 0	 138	 138	 1.1	 0.9;
	 184	 1	 4.828	 1.26	 0	 0	 1	 1	 0	 69	 69	 1.1	 0.9;
	 185	 1	 5.659	 1.462	 0	 0	 1	 1	 0	 69	 69	 1.1	 0.9;
	 186	 1	 0	 0	 0	 0	 1	 1	 0	 138	 138	 1.1	 0.9;
	 187	 1	 2.454	 0.633	 0	 0	 1	 1	 0	 69	 69	 1.1	 0.9;
	 188	 1	 5.224	 1.377	 0	 0	 1	 1	 0	 69	 69	 1.1	 0.9;
	 189	 1	 3.562	 0.94	 0	 0	 1	 1	 0	 69	 69	 1.1	 0.9;
	 190	 1	 6.589	 1.704	 0	 0	 1	 1	 0	 69	 69	 1.1	 0.9;
	 191	 1	 0	 0	 0	 0	 1	 1	 0	 138	 138	 1.1	 0.9;
	 192	 1	 5.303	 1.39	 0	 0	 1	 1	 0	 69	 69	 1.1	 0.9;
	 193	 1	 4.591	 1.201	 0	 0	 1	 1	 0	 69	 69	 1.1	 0.9;
	 194	 1	 71.246	 17.719	 0	 0	 1	 1	 0	 345	 1	 1.1	 0.9;
	 195	 1	 6.556	 1.704	 0	 0	 1	 1	 0	 69	 69	 1.1	 0.9;
	 196	 1	 7.849	 2.082	 0	 0	 1	 1	 0	 69	 69	 1.1	 0.9;
	 197	 1	 8.324	 2.161	 0	 0	 1	 1	 0	 69	 69	 1.1	 0.9;
	 198	 1	 0	 0	 0	 0	 1	 1	 0	 230	 1	 1.1	 0.9;
	 199	 1	 0	 0	 0	 0	 1	 1	 0	 138	 138	 1.1	 0.9;
	 200	 1	 0	 0	 0	 0	 1	 1	 0	 138	 138	 1.1	 0.9;
...
];

mpc_regionR1.gen = [
%	bus         Pg          Qg          Qmax        Qmin        Vg          mBase       status      Pmax        Pmin        Pc1         Pc2         Qc1min      Qc1max      Qc2min      Qc2max      ramp_agc    ramp_10     ramp_30     ramp_q      apf         
	 1	 486.2	 46.95	 301.4	-207.5	 1	 100	 1	 622.4	 350;
	 2	 330	 4.3	 198.6	-190	 1	 100	 1	 410	 250;
	 3	 141.6	 21.4	 137.2	-94.4	 1	 100	 1	 283.2	 0;
	 4	 218.5	 38.25	 165.5	-89	 1	 100	 1	 267	 170;
	 4	 201	 38.25	 165.5	-89	 1	 100	 1	 267	 135;
	 4	 201	 38.25	 165.5	-89	 1	 100	 1	 267	 135;
	 10	 145	 25.8	 111.6	-60	 1	 100	 1	 180	 110;
	 15	 132.5	 11.2185	 84.8	-62.363	 1	 100	 1	 175	 90;
	 15	 132.5	 11.2185	 84.8	-62.363	 1	 100	 1	 175	 90;
	 15	 130	 13.0685	 96.9	-70.763	 1	 100	 1	 200	 60;
	 16	 142.5	 26.5	 114.7	-61.7	 1	 100	 1	 185	 100;
	 16	 121	 24.65	 106.6	-57.3	 1	 100	 1	 172	 70;
	 19	 140.5	 12.55	 80.4	-55.3	 1	 100	 1	 166	 115;
	 19	 140.5	 12.55	 80.4	-55.3	 1	 100	 1	 166	 115;
	 19	 65	 7.55	 48.4	-33.3	 1	 100	 1	 100	 30;
	 20	 102	 22.4685	 99.337	-54.4	 1	 100	 1	 163.2	 40.8;
	 22	 83.4	 18.9	 81.7	-43.9	 1	 100	 1	 131.8	 35;
	 22	 83.4	 18.9	 81.7	-43.9	 1	 100	 1	 131.8	 35;
	 23	 61.2	 44.6655	 123.431	-34.1	 1	 100	 1	 102.4	 20;
	 26	 38	 19.0545	 58.409	-20.3	 1	 100	 1	 61	 15;
	 26	 16.5	 12.1045	 32.209	-8	 1	 100	 1	 24	 9;
	 26	 41	 17.4545	 51.609	-16.7	 1	 100	 1	 50	 32;
	 26	 20	 13.9045	 36.109	-8.3	 1	 100	 1	 25	 15;
	 29	 31.6	 36.9355	 87.571	-13.7	 1	 100	 1	 41	 22.2;
	 30	 31	 2.5	 16	-11	 1	 100	 1	 33	 29;
	 30	 30	 2.5	 16	-11	 1	 100	 1	 33	 27;
	 34	 12.9	 16.9655	 41.831	-7.9	 1	 100	 1	 23.8	 2;
	 37	 14.3	 45.4325	 97.565	-6.7	 1	 100	 1	 20	 8.6;
	 37	 14.3	 45.4325	 97.565	-6.7	 1	 100	 1	 20	 8.6;
	 470	 146.95	 28.5	 123.3	-66.3	 1	 100	 1	 198.9	 95;
	 470	 146.95	 28.5	 123.3	-66.3	 1	 100	 1	 198.9	 95;
	 470	 105.25	 28	 121.2	-65.2	 1	 100	 1	 195.5	 15;
	 472	 225	 26.5	 170	-117	 1	 100	 1	 351	 99;
	 472	 124.8	 27.15	 117.5	-63.2	 1	 100	 1	 189.6	 60;
	 472	 124.8	 27.15	 117.5	-63.2	 1	 100	 1	 189.6	 60;
	 474	 225	 26.5	 170	-117	 1	 100	 1	 351	 99;
	 474	 203.5	 26.6	 170.5	-117.3	 1	 100	 1	 352	 55;
	 474	 124.8	 27.15	 117.5	-63.2	 1	 100	 1	 189.6	 60;
	 474	 124.8	 27.15	 117.5	-63.2	 1	 100	 1	 189.6	 60;
	 481	 135.25	 25.35	 109.6	-58.9	 1	 100	 1	 176.8	 93.7;
	 481	 130.125	 24.35	 105.4	-56.7	 1	 100	 1	 170.1	 90.15;
	 481	 130.125	 24.35	 105.4	-56.7	 1	 100	 1	 170.1	 90.15;
	 482	 23.8	 5.2875	 24.575	-14	 1	 100	 1	 42	 5.6;
	 482	 27.5	 5	 21.7	-11.7	 1	 100	 1	 35	 20;
	 489	 40.5	 8.75	 37.8	-20.3	 1	 100	 1	 61	 20;
	 489	 40.5	 8.75	 37.8	-20.3	 1	 100	 1	 61	 20;
	 489	 40.5	 8.75	 37.8	-20.3	 1	 100	 1	 61	 20;
	 489	 40.5	 8.75	 37.8	-20.3	 1	 100	 1	 61	 20;
	 492	 26	 6.7085	 29.117	-15.7	 1	 100	 1	 47	 5;
	 493	 31.1	 58.435	 131.57	-14.7	 1	 100	 1	 44.2	 18;
];

mpc_regionR1.branch = [
%	fbus        tbus        r           x           b           rateA       rateB       rateC       ratio       angle       status      angmin      angmax      
	 1	 122	 0.0200024	 0.0832729	 0.0383714	 217.6	 256	 256	 0	 0	 1	-30	 30;
	 1	 337	 0.0299014	 0.104693	 0.0347237	 207.4	 244	 244	 0	 0	 1	-30	 30;
	 1	 384	 0.0300678	 0.0913345	 0.0200103	 108.8	 128	 128	 0	 0	 1	-30	 30;
	 1	 387	 0.0165013	 0.0577492	 0.0191424	 138.72	 163.21	 163.21	 0	 0	 1	-30	 30;
	 1	 388	 0.0196501	 0.0596781	 0.0130715	 142	 142	 142	 0	 0	 1	-30	 30;
	 1	 482	 0.0163343	 0.105031	 0.0720622	 323.85	 381	 381	 0	 0	 1	-30	 30;
	 2	 129	 0.00328017	 0.0227785	 0.893779	 675.75	 795	 795	 0	 0	 1	-30	 30;
	 2	 250	 0.0014774	 0.0105676	 0.3867	 675.75	 795	 795	 0	 0	 1	-30	 30;
	 2	 422	 0.00637419	 0.0465141	 1.71056	 675.75	 795	 795	 0	 0	 1	-30	 30;
	 3	 66	 0.00263979	 0.0259099	 0.97991	 804.95	 947	 947	 0	 0	 1	-30	 30;
	 3	 244	 0.00206443	 0.0148789	 0.537491	 675.75	 795	 795	 0	 0	 1	-30	 30;
	 4	 156	 0.00591338	 0.0268282	 0.0209737	 268.6	 316	 316	 0	 0	 1	-30	 30;
	 4	 199	 0.00948304	 0.0364853	 0.00996602	 233	 233	 233	 0	 0	 1	-30	 30;
	 4	 209	 0.00161205	 0.0148293	 0.00470563	 241.4	 284	 284	 0	 0	 1	-30	 30;
	 4	 544	 0.00607466	 0.0247198	 0.00602279	 135.15	 159	 159	 0	 0	 1	-30	 30;
	 4	 555	 0.000539409	 0.00540581	 0.0038861	 425.85	 501	 501	 0	 0	 1	-30	 30;
	 5	 129	 0.000634551	 0.00439176	 0.17149	 675.75	 795	 795	 0	 0	 1	-30	 30;
	 6	 243	 0.034357	 0.09227	 0.0209204	 100.3	 118	 118	 0	 0	 1	-30	 30;
	 6	 468	 0.00615217	 0.0260386	 0.00585916	 135.15	 159	 159	 0	 0	 1	-30	 30;
	 7	 3	 0.000365134	 0.00461686	 0.181691	 974.95	 1147	 1147	 0	 0	 1	-30	 30;
	 7	 244	 0.00163954	 0.0118107	 0.42634	 675.75	 795	 795	 0	 0	 1	-30	 30;
	 8	 339	 0.000643385	 0.00463136	 0.167007	 675.75	 795	 795	 0	 0	 1	-30	 30;
	 8	 346	 0.000236999	 0.00169408	 0.0619303	 675.75	 795	 795	 0	 0	 1	-30	 30;
	 9	 570	 0.000101629	 0.00142843	 0.00592419	 804.1	 946	 946	 0	 0	 1	-30	 30;
	 10	 384	 0.00164192	 0.00788125	 0.00376815	 208.17	 244.86	 244.86	 0	 0	 1	-30	 30;
	 10	 386	 0.00386778	 0.0397376	 0.0125702	 276.17	 324.91	 324.91	 0	 0	 1	-30	 30;
	 11	 345	 0.00174376	 0.0140021	 0.0263204	 337.45	 397	 397	 0	 0	 1	-30	 30;
	 11	 570	 0.000289425	 0.00323681	 0.00664062	 435.2	 512	 512	 0	 0	 1	-30	 30;
	 11	 599	 0.000719985	 0.00659985	 0.0260499	 621.35	 731	 731	 0	 0	 1	-30	 30;
	 12	 244	 0.00193354	 0.0138372	 0.506711	 675.75	 795	 795	 0	 0	 1	-30	 30;
	 12	 339	 0.00153318	 0.0110433	 0.398577	 675.75	 795	 795	 0	 0	 1	-30	 30;
	 13	 330	 0.030031	 0.12407	 0.0293796	 135.15	 159	 159	 0	 0	 1	-30	 30;
	 13	 347	 0.0123745	 0.0332226	 0.0075297	 100.3	 118	 118	 0	 0	 1	-30	 30;
	 13	 349	 0.0143875	 0.0369869	 0.00915932	 100.3	 118	 118	 0	 0	 1	-30	 30;
	 13	 600	 0.0111726	 0.0461328	 0.010916	 135.15	 159	 159	 0	 0	 1	-30	 30;
	 14	 66	 0.00229788	 0.0164528	 0.602924	 675.75	 795	 795	 0	 0	 1	-30	 30;
	 14	 194	 0.000286315	 0.0020608	 0.0743008	 675.75	 795	 795	 0	 0	 1	-30	 30;
	 14	 475	 1e-07	 0.0001	 0	 340	 400	 400	 0	 0	 1	-30	 30;
	 15	 25	 1.04232e-05	 0.0001	 0.000797989	 532.1	 626	 626	 0	 0	 1	-30	 30;
	 16	 133	 0.00539744	 0.0209979	 0.00560839	 135.15	 159	 159	 0	 0	 1	-30	 30;
	 16	 135	 0.00440715	 0.017934	 0.00436939	 135.15	 159	 159	 0	 0	 1	-30	 30;
	 16	 144	 0.00835249	 0.047484	 0.013747	 174.25	 205	 205	 0	 0	 1	-30	 30;
	 16	 219	 0.0198208	 0.0700728	 0.0157935	 120.7	 142	 142	 0	 0	 1	-30	 30;
	 16	 220	 0.00637941	 0.022233	 0.00515529	 120.7	 142	 142	 0	 0	 1	-30	 30;
	 16	 360	 0.0417665	 0.113773	 0.0250814	 100.3	 118	 118	 0	 0	 1	-30	 30;
	 17	 19	 7.03265e-05	 0.000486672	 0.0190002	 675.75	 795	 795	 0	 0	 1	-30	 30;
	 17	 339	 0.000338804	 0.00234467	 0.0915429	 675.75	 795	 795	 0	 0	 1	-30	 30;
	 18	 19	 0.0034509	 0.0249335	 0.903958	 675.75	 795	 795	 0	 0	 1	-30	 30;
	 18	 58	 0.000523486	 0.00754728	 0.305638	 1069.3	 1258	 1258	 0	 0	 1	-30	 30;
	 19	 346	 0.000614953	 0.00442665	 0.159622	 675.75	 795	 795	 0	 0	 1	-30	 30;
	 20	 316	 0.00156856	 0.00548836	 0.00181878	 212	 212	 212	 0	 0	 1	-30	 30;
	 20	 319	 0.0017233	 0.00637182	 0.00188759	 244	 244	 244	 0	 0	 1	-30	 30;
	 21	 126	 0.063113	 0.160708	 0.0407202	 100.3	 118	 118	 0	 0	 1	-30	 30;
	 21	 127	 0.0546402	 0.144539	 0.0338687	 100.3	 118	 118	 0	 0	 1	-30	 30;
	 21	 220	 0.211874	 0.577296	 0.133153	 100.3	 118	 118	 0	 0	 1	-30	 30;
	 21	 423	 0.080007	 0.1932	 0.054675	 100.3	 118	 118	 0	 0	 1	-30	 30;
	 21	 439	 0.0682612	 0.167334	 0.0458549	 100.3	 118	 118	 0	 0	 1	-30	 30;
	 21	 527	 0.212708	 0.570651	 0.135951	 100.3	 118	 118	 0	 0	 1	-30	 30;
	 22	 419	 0.00167365	 0.00941747	 0.00325306	 202.98	 238.77	 238.77	 0	 0	 1	-30	 30;
	 22	 428	 0.00107518	 0.0068098	 0.00184818	 207.66	 244.25	 244.25	 0	 0	 1	-30	 30;
	 22	 626	 0.00905394	 0.0315547	 0.00731697	 120.7	 142	 142	 0	 0	 1	-30	 30;
	 23	 387	 0.00937455	 0.034664	 0.0102697	 135.15	 159	 159	 0	 0	 1	-30	 30;
	 23	 395	 0.0012555	 0.0114913	 0.00460181	 273.53	 321.81	 321.81	 0	 0	 1	-30	 30;
	 24	 57	 0.00221853	 0.0105714	 0.0193495	 412	 412	 412	 0	 0	 1	-30	 30;
	 24	 501	 0.000329923	 0.00256641	 0.00514391	 411	 411	 411	 0	 0	 1	-30	 30;
	 25	 210	 0.0496759	 0.201531	 1.65927	 301.75	 355	 355	 0	 0	 1	-30	 30;
	 26	 109	 0.000752839	 0.00359792	 0.00125997	 193	 193	 212	 0	 0	 1	-30	 30;
	 26	 116	 0.00845504	 0.0328939	 0.00878611	 135.15	 159	 159	 0	 0	 1	-30	 30;
	 27	 318	 0.00454353	 0.013606	 0.00306492	 108.8	 128	 128	 0	 0	 1	-30	 30;
	 27	 600	 0.00481971	 0.0111878	 0.00340839	 100.3	 118	 118	 0	 0	 1	-30	 30;
	 28	 333	 0.000408779	 0.00151057	 0.0121436	 301.75	 355	 355	 0	 0	 1	-30	 30;
	 29	 317	 0.00337225	 0.00866871	 0.00214654	 100.3	 118	 118	 0	 0	 1	-30	 30;
	 29	 328	 0.00850684	 0.0220475	 0.00667004	 108.8	 128	 128	 0	 0	 1	-30	 30;
	 29	 332	 0.0278611	 0.0758714	 0.01672	 100.3	 118	 118	 0	 0	 1	-30	 30;
	 30	 123	 0.206353	 0.553082	 0.131621	 100.3	 118	 118	 0	 0	 1	-30	 30;
	 30	 369	 0.0171025	 0.0514835	 0.0161094	 120.7	 142	 142	 0	 0	 1	-30	 30;
	 30	 374	 0.0746543	 0.169649	 0.0542586	 100.3	 118	 118	 0	 0	 1	-30	 30;
	 31	 356	 0.284312	 0.261983	 0.00420042	 44	 44	 49	 0	 0	 1	-30	 30;
	 31	 363	 0.337396	 0.310949	 0.00498563	 44	 44	 49	 0	 0	 1	-30	 30;
	 31	 455	 0.322099	 0.732859	 0.011413	 48.45	 57	 57	 0	 0	 1	-30	 30;
	 32	 333	 0.00700886	 0.027148	 0.199013	 301.75	 355	 355	 0	 0	 1	-30	 30;
	 32	 335	 0.000307647	 0.00119049	 0.00871586	 301.75	 355	 355	 0	 0	 1	-30	 30;
	 33	 345	 0.00301289	 0.00931836	 0.0151688	 181.05	 213	 213	 0	 0	 1	-30	 30;
	 34	 395	 0.0132554	 0.0463862	 0.0153744	 135.15	 159	 159	 0	 0	 1	-30	 30;
	 34	 502	 0.0133815	 0.0468275	 0.0155207	 135.15	 159	 159	 0	 0	 1	-30	 30;
	 35	 193	 0.176002	 0.176067	 0.00237879	 44	 44	 49	 0	 0	 1	-30	 30;
	 35	 503	 0.0976817	 0.0899784	 0.00144257	 44	 44	 49	 0	 0	 1	-30	 30;
	 36	 121	 0.0198655	 0.0695288	 0.0230497	 135.15	 159	 159	 0	 0	 1	-30	 30;
	 36	 388	 0.00851656	 0.0174288	 0.00686228	 100.3	 118	 118	 0	 0	 1	-30	 30;
	 36	 394	 0.0203804	 0.075378	 0.0223389	 135.15	 159	 159	 0	 0	 1	-30	 30;
	 37	 268	 0.000117171	 0.00100424	 0.00836693	 505.75	 595	 595	 0	 0	 1	-30	 30;
	 37	 269	 0.000110662	 0.00122064	 0.0104532	 601.8	 708	 708	 0	 0	 1	-30	 30;
	 38	 39	 0.0281032	 0.065251	 0.0198843	 100.3	 118	 118	 0	 0	 1	-30	 30;
	 38	 338	 0.0197713	 0.0484004	 0.0132426	 100.3	 118	 118	 0	 0	 1	-30	 30;
	 38	 603	 0.0621525	 0.159963	 0.0396664	 100.3	 118	 118	 0	 0	 1	-30	 30;
	 39	 40	 0.0132508	 0.0324361	 0.00887396	 100.3	 118	 118	 0	 0	 1	-30	 30;
	 41	 454	 0.0382536	 0.088838	 0.0270787	 100.3	 118	 118	 0	 0	 1	-30	 30;
	 42	 44	 0.0097162	 0.032065	 0.00831165	 120.7	 142	 142	 0	 0	 1	-30	 30;
	 43	 44	 0.0195917	 0.0508677	 0.0123479	 100.3	 118	 118	 0	 0	 1	-30	 30;
	 43	 52	 0.0165794	 0.0421674	 0.0106698	 100.3	 118	 118	 0	 0	 1	-30	 30;
	 45	 46	 0.31062	 0.336314	 0.00386017	 44	 44	 49	 0	 0	 1	-30	 30;
	 45	 128	 0.37415	 0.344866	 0.00552954	 44	 44	 49	 0	 0	 1	-30	 30;
	 47	 50	 0.386162	 0.426298	 0.00470307	 44	 44	 49	 0	 0	 1	-30	 30;
	 47	 241	 0.305212	 0.311174	 0.00404589	 44	 44	 49	 0	 0	 1	-30	 30;
	 47	 566	 0.176884	 0.447216	 0.00559857	 48.45	 57	 57	 0	 0	 1	-30	 30;
	 48	 49	 0.0680925	 0.126619	 0.00296383	 48.45	 57	 57	 0	 0	 1	-30	 30;
	 48	 51	 0.309728	 0.329752	 0.00391909	 44	 44	 49	 0	 0	 1	-30	 30;
	 48	 608	 0.178477	 0.612861	 0.00918841	 60.35	 71	 71	 0	 0	 1	-30	 30;
	 49	 51	 0.0903839	 0.189988	 0.00346177	 48.45	 57	 57	 0	 0	 1	-30	 30;
	 49	 131	 0.12573	 0.325976	 0.00616619	 54.4	 64	 64	 0	 0	 1	-30	 30;
	 49	 601	 0.147852	 0.445329	 0.00871527	 60.35	 71	 71	 0	 0	 1	-30	 30;
	 50	 51	 0.05443	 0.0571902	 0.000697712	 44	 44	 49	 0	 0	 1	-30	 30;
	 52	 53	 0.00537214	 0.020668	 0.00564516	 135.15	 159	 159	 0	 0	 1	-30	 30;
	 54	 55	 0.0315942	 0.0773582	 0.0211702	 100.3	 118	 118	 0	 0	 1	-30	 30;
	 54	 221	 0.0649758	 0.151032	 0.0460822	 100.3	 118	 118	 0	 0	 1	-30	 30;
	 54	 233	 0.0652411	 0.157434	 0.0445182	 100.3	 118	 118	 0	 0	 1	-30	 30;
	 55	 238	 0.021721	 0.0504273	 0.0153653	 100.3	 118	 118	 0	 0	 1	-30	 30;
	 56	 500	 0.00438251	 0.0101729	 0.0030992	 100.3	 118	 118	 0	 0	 1	-30	 30;
	 56	 502	 0.00737383	 0.030007	 0.00731108	 202	 202	 202	 0	 0	 1	-30	 30;
	 57	 59	 0.00161136	 0.00870577	 0.0150761	 261.8	 308	 308	 0	 0	 1	-30	 30;
	 60	 118	 0.00501582	 0.0147877	 0.00344003	 108.8	 128	 128	 0	 0	 1	-30	 30;
	 60	 504	 0.00484003	 0.012309	 0.0031143	 100.3	 118	 118	 0	 0	 1	-30	 30;
	 61	 63	 0.0101213	 0.0304651	 0.00953148	 120.7	 142	 142	 0	 0	 1	-30	 30;
	 61	 227	 0.0112197	 0.0356273	 0.00999535	 120.7	 142	 142	 0	 0	 1	-30	 30;
	 62	 64	 0.1243	 0.124338	 0.00167986	 44	 44	 49	 0	 0	 1	-30	 30;
	 62	 202	 0.170317	 0.316841	 0.0074194	 48.45	 57	 57	 0	 0	 1	-30	 30;
	 62	 505	 0.163086	 0.168941	 0.00212378	 44	 44	 49	 0	 0	 1	-30	 30;
	 62	 513	 0.0788524	 0.078873	 0.0010656	 44	 44	 49	 0	 0	 1	-30	 30;
	 63	 504	 0.00482575	 0.0125068	 0.00378361	 108.8	 128	 128	 0	 0	 1	-30	 30;
	 64	 68	 0.0541449	 0.0498733	 0.000799583	 44	 44	 49	 0	 0	 1	-30	 30;
	 64	 81	 0.0368677	 0.0339589	 0.000544438	 44	 44	 49	 0	 0	 1	-30	 30;
	 64	 505	 0.0414419	 0.0388629	 0.000600244	 44	 44	 49	 0	 0	 1	-30	 30;
	 65	 67	 0.00100011	 0.00315833	 0.00492729	 181.05	 213	 213	 0	 0	 1	-30	 30;
	 65	 570	 0.0786775	 0.24194	 0.424657	 181.05	 213	 213	 0	 0	 1	-30	 30;
	 69	 70	 0.00162626	 0.00442758	 0.000975436	 100.3	 118	 118	 0	 0	 1	-30	 30;
	 70	 71	 0.00169831	 0.00415697	 0.00113721	 100.3	 118	 118	 0	 0	 1	-30	 30;
	 70	 77	 0.00253178	 0.00706005	 0.00148183	 100.3	 118	 118	 0	 0	 1	-30	 30;
	 71	 72	 0.00191738	 0.00492881	 0.00122047	 100.3	 118	 118	 0	 0	 1	-30	 30;
	 72	 76	 0.00274326	 0.0106721	 0.00285037	 135.15	 159	 159	 0	 0	 1	-30	 30;
	 72	 77	 0.00320841	 0.00847924	 0.00198469	 100.3	 118	 118	 0	 0	 1	-30	 30;
	 73	 515	 0.0576604	 0.163635	 0.00257129	 54.4	 64	 64	 0	 0	 1	-30	 30;
	 74	 75	 0.00495914	 0.0201799	 0.000307282	 68	 80	 80	 0	 0	 1	-30	 30;
	 74	 511	 0.00966477	 0.0423421	 0.00091028	 78.2	 92	 92	 0	 0	 1	-30	 30;
	 75	 513	 0.127713	 0.268491	 0.00489285	 48.45	 57	 57	 0	 0	 1	-30	 30;
	 75	 516	 0.0399192	 0.17376	 0.00309433	 74.8	 88	 88	 0	 0	 1	-30	 30;
	 76	 78	 0.00628833	 0.0168821	 0.00382607	 100.3	 118	 118	 0	 0	 1	-30	 30;
	 76	 86	 0.00498107	 0.0383713	 0.0117488	 212.5	 250	 250	 0	 0	 1	-30	 30;
	 77	 78	 0.00192509	 0.00635279	 0.00164662	 120.7	 142	 142	 0	 0	 1	-30	 30;
	 78	 82	 0.0108099	 0.0290218	 0.00657753	 100.3	 118	 118	 0	 0	 1	-30	 30;
	 79	 80	 0.00302113	 0.0070128	 0.00213645	 100.3	 118	 118	 0	 0	 1	-30	 30;
	 79	 191	 0.00941985	 0.0227006	 0.0064094	 100.3	 118	 118	 0	 0	 1	-30	 30;
	 80	 82	 0.00972414	 0.0225728	 0.00687702	 100.3	 118	 118	 0	 0	 1	-30	 30;
	 84	 87	 0.00437908	 0.0153225	 0.00507779	 135.15	 159	 159	 0	 0	 1	-30	 30;
	 84	 116	 0.00397154	 0.0266103	 0.00815217	 195.5	 230	 230	 0	 0	 1	-30	 30;
	 85	 88	 0.00580304	 0.0402112	 0.000826812	 101.15	 119	 119	 0	 0	 1	-30	 30;
	 86	 87	 0.00392265	 0.0115179	 0.00867577	 199.75	 235	 235	 0	 0	 1	-30	 30;
	 88	 89	 0.02201	 0.051091	 0.000972813	 50.15	 59	 59	 0	 0	 1	-30	 30;
	 90	 109	 0.00773549	 0.0309711	 0.00780284	 135.15	 159	 159	 0	 0	 1	-30	 30;
	 91	 117	 0.00678082	 0.0250717	 0.000464203	 68	 80	 80	 0	 0	 1	-30	 30;
	 91	 520	 0.00582498	 0.0287214	 0.000485367	 78.2	 92	 92	 0	 0	 1	-30	 30;
	 92	 93	 0.00862689	 0.0273923	 0.000480273	 60.35	 71	 71	 0	 0	 1	-30	 30;
	 92	 108	 0.00659248	 0.0279004	 0.000526011	 74.8	 88	 88	 0	 0	 1	-30	 30;
	 93	 94	 0.0064552	 0.0135671	 0.000247171	 48.45	 57	 57	 0	 0	 1	-30	 30;
	 93	 97	 0.00858007	 0.0204661	 0.000288016	 48.45	 57	 57	 0	 0	 1	-30	 30;
	 93	 117	 0.035233	 0.0289997	 0.000587634	 44	 44	 49	 0	 0	 1	-30	 30;
	 94	 95	 0.00730836	 0.0161753	 0.000265225	 48.45	 57	 57	 0	 0	 1	-30	 30;
	 95	 107	 0.00556542	 0.0129187	 0.00024598	 50.15	 59	 59	 0	 0	 1	-30	 30;
	 96	 97	 0.0157329	 0.0330663	 0.00060242	 48.45	 57	 57	 0	 0	 1	-30	 30;
	 96	 98	 0.0099334	 0.0257441	 0.000486759	 54.4	 64	 64	 0	 0	 1	-30	 30;
	 96	 103	 0.0091694	 0.0192716	 0.000351099	 48.45	 57	 57	 0	 0	 1	-30	 30;
	 97	 117	 0.0295994	 0.027264	 0.000437102	 44	 44	 49	 0	 0	 1	-30	 30;
	 98	 106	 0.00856731	 0.0180062	 0.000328045	 48.45	 57	 57	 0	 0	 1	-30	 30;
	 99	 100	 0.00553016	 0.0146573	 0.000371754	 60.35	 71	 71	 0	 0	 1	-30	 30;
	 100	 103	 0.0179137	 0.0165003	 0.000264536	 44	 44	 49	 0	 0	 1	-30	 30;
	 100	 115	 0.010141	 0.0213136	 0.000388301	 48.45	 57	 57	 0	 0	 1	-30	 30;
	 101	 102	 0.00645686	 0.0132134	 0.000325151	 50.15	 59	 59	 0	 0	 1	-30	 30;
	 101	 119	 0.0322277	 0.0311386	 0.000452159	 44	 44	 49	 0	 0	 1	-30	 30;
	 103	 112	 0.0119101	 0.0244759	 0.000466713	 48.45	 57	 57	 0	 0	 1	-30	 30;
	 104	 105	 0.0163897	 0.0169761	 0.000213402	 44	 44	 49	 0	 0	 1	-30	 30;
	 104	 115	 0.00963952	 0.0213348	 0.000349825	 48.45	 57	 57	 0	 0	 1	-30	 30;
	 104	 119	 0.0336064	 0.0309549	 0.000496277	 44	 44	 49	 0	 0	 1	-30	 30;
	 105	 114	 0.0186193	 0.0192855	 0.000242432	 44	 44	 49	 0	 0	 1	-30	 30;
	 107	 519	 0.00437351	 0.0153028	 0.000316948	 68	 80	 80	 0	 0	 1	-30	 30;
	 110	 111	 0.00310452	 0.0136011	 0.000292396	 78.2	 92	 92	 0	 0	 1	-30	 30;
	 111	 113	 0.00614123	 0.0162301	 0.00023743	 50.15	 59	 59	 0	 0	 1	-30	 30;
	 112	 114	 0.00689906	 0.016017	 0.000238197	 48.45	 57	 57	 0	 0	 1	-30	 30;
	 113	 114	 0.00775507	 0.0184982	 0.000260322	 48.45	 57	 57	 0	 0	 1	-30	 30;
	 114	 115	 0.025872	 0.0242618	 0.000374727	 44	 44	 49	 0	 0	 1	-30	 30;
	 120	 122	 0.0240125	 0.0801269	 0.0203286	 120.7	 142	 142	 0	 0	 1	-30	 30;
	 122	 242	 0.0362852	 0.118426	 0.0314668	 120.7	 142	 142	 0	 0	 1	-30	 30;
	 123	 458	 0.0511673	 0.131639	 0.0326276	 100.3	 118	 118	 0	 0	 1	-30	 30;
	 123	 615	 0.172041	 0.459057	 0.108673	 100.3	 118	 118	 0	 0	 1	-30	 30;
	 123	 626	 0.141311	 0.365599	 0.0912123	 100.3	 118	 118	 0	 0	 1	-30	 30;
	 124	 130	 0.811382	 0.813997	 0.0110055	 44	 44	 49	 0	 0	 1	-30	 30;
	 124	 421	 0.364091	 0.678555	 0.0159167	 48.45	 57	 57	 0	 0	 1	-30	 30;
	 125	 234	 0.47445	 0.475043	 0.00641955	 44	 44	 49	 0	 0	 1	-30	 30;
	 125	 252	 0.681071	 0.628777	 0.0100841	 44	 44	 49	 0	 0	 1	-30	 30;
	 125	 526	 0.445329	 0.410593	 0.00658368	 44	 44	 49	 0	 0	 1	-30	 30;
	 126	 127	 0.0614254	 0.142759	 0.0435507	 100.3	 118	 118	 0	 0	 1	-30	 30;
	 127	 232	 0.0364414	 0.0978723	 0.0221919	 100.3	 118	 118	 0	 0	 1	-30	 30;
...
];

mpc_regionR1.gencost = [
%	2           startup     shutdown    n           c(n-1)...c0 
	 2	 0	 0	 3	 0	 17.37	-489.7;
	 2	 0	 0	 3	 0	 19.7	-464;
	 2	 0	 0	 3	 0	 2.699	 0;
	 2	 0	 0	 3	 0.03154	 13.06	-11.11;
	 2	 0	 0	 3	 0.0316	 14.94	-7.281;
	 2	 0	 0	 3	 0.0316	 14.21	-7.282;
	 2	 0	 0	 3	 0.03865	 13.55	-8.48;
	 2	 0	 0	 3	 0.09678	 11.01	-15.14;
	 2	 0	 0	 3	 0.03871	 11.08	-6.057;
	 2	 0	 0	 3	 0.01113	 20.91	-1.124;
	 2	 0	 0	 3	 0.03871	 11	-6.923;
	 2	 0	 0	 3	 0.03876	 11.38	-4.418;
	 2	 0	 0	 3	 0.06419	 13.53	-17.8;
	 2	 0	 0	 3	 0	 22.12	-801.6;
	 2	 0	 0	 3	 0	 22.9	-49.41;
	 2	 0	 0	 3	 0.02538	 25.69	-1.861;
	 2	 0	 0	 3	 0	 22.76	-103.5;
	 2	 0	 0	 3	 0	 20.17	-62.09;
	 2	 0	 0	 3	 0	 20.28	-32.83;
	 2	 0	 0	 3	 0.07671	 16.14	-2.133;
	 2	 0	 0	 3	 0	 32.59	-38.94;
	 2	 0	 0	 3	 0	 23.91	-112.4;
	 2	 0	 0	 3	 0	 21.51	-26.84;
	 2	 0	 0	 3	 0	 18.59	-54.58;
	 2	 0	 0	 3	 0	 0.002381	 0;
	 2	 0	 0	 3	 0	 22.12	-68.92;
	 2	 0	 0	 3	 0	 19.12	-11.71;
	 2	 0	 0	 3	 0	 18.01	-6.72;
	 2	 0	 0	 3	 0	 17.32	-11.2;
	 2	 0	 0	 3	 0.01853	 20.38	-2.952;
	 2	 0	 0	 3	 0.01853	 21.85	-2.952;
	 2	 0	 0	 3	 0.01115	 22.74	 0;
	 2	 0	 0	 3	 0.03167	 15.39	-5.339;
	 2	 0	 0	 3	 0.01113	 22.56	-1.109;
	 2	 0	 0	 3	 0.01113	 22.07	-1.109;
	 2	 0	 0	 3	 0.05278	 15.13	-8.899;
	 2	 0	 0	 3	 0.00744	 22.98	 0;
	 2	 0	 0	 3	 0.01855	 21.53	-1.849;
	 2	 0	 0	 3	 0.01113	 21.84	-1.109;
	 2	 0	 0	 3	 0.09677	 12.26	-16.03;
	 2	 0	 0	 3	 0.09674	 12.66	-15.44;
	 2	 0	 0	 3	 0.09674	 11.96	-15.44;
	 2	 0	 0	 3	 0	 14.78	-21.99;
	 2	 0	 0	 3	 0	 19.97	-50.85;
	 2	 0	 0	 3	 0	 21.84	-133.9;
	 2	 0	 0	 3	 0	 21.04	-89.27;
	 2	 0	 0	 3	 0	 17.8	-53.56;
	 2	 0	 0	 3	 0	 21.04	-89.27;
	 2	 0	 0	 3	 0	 19.31	-20.64;
	 2	 0	 0	 3	 0	 18.58	-52.94;
];


% -------------------- mpc_regionR2 --------------------

mpc_regionR2.version = '2';
mpc_regionR2.baseMVA = 100.0000;
mpc_regionR2.bus = [
%	bus_i       type        Pd          Qd          Gs          Bs          area        Vm          Va          baseKV      zone        Vmax        Vmin        
	 1	 1	 0	 0	 0	 0	 1	 1	 0	 345	 1	 1.1	 0.9;
	 2	 1	 0	 0	 0	 0	 1	 1	 0	 345	 1	 1.1	 0.9;
	 3	 2	 150	 33	 0	 0	 1	 1	 0	 345	 1	 1.1	 0.9;
	 4	 1	 0	 0	 0	 0	 1	 1	 0	 345	 1	 1.1	 0.9;
	 5	 1	 0	 0	 0	 0	 1	 1	 0	 345	 1	 1.1	 0.9;
	 6	 2	 0	 0	 0	 0	 1	 1	 0	 138	 2138	 1.1	 0.9;
	 7	 1	 0	 0	 0	 0	 1	 1	 0	 345	 1	 1.1	 0.9;
	 8	 1	 0	 0	 0	 0	 1	 1	 0	 345	 1	 1.1	 0.9;
	 9	 2	 0	 0	 0	 0	 1	 1	 0	 138	 2138	 1.1	 0.9;
	 10	 2	 0	 0	 0	 0	 1	 1	 0	 230	 2	 1.1	 0.9;
	 11	 1	 0	 0	 0	 0	 1	 1	 0	 345	 1	 1.1	 0.9;
	 12	 2	 0	 0	 0	 0	 1	 1	 0	 345	 2	 1.1	 0.9;
	 13	 2	 0	 0	 0	 0	 1	 1	 0	 345	 2	 1.1	 0.9;
	 14	 1	 0	 0	 0	 0	 1	 1	 0	 138	 138	 1.1	 0.9;
	 15	 2	 0	 0	 0	 0	 1	 1	 0	 138	 2138	 1.1	 0.9;
	 16	 2	 0	 0	 0	 0	 1	 1	 0	 138	 2138	 1.1	 0.9;
	 17	 2	 0	 0	 0	 0	 1	 1	 0	 138	 2138	 1.1	 0.9;
	 18	 1	 0	 0	 0	 0	 1	 1	 0	 138	 2138	 1.1	 0.9;
	 19	 2	 0	 0	 0	 0	 1	 1	 0	 345	 2	 1.1	 0.9;
	 20	 2	 0	 0	 0	 0	 1	 1	 0	 138	 2138	 1.1	 0.9;
	 21	 2	 0	 0	 0	 0	 1	 1	 0	 138	 2138	 1.1	 0.9;
	 22	 2	 0	 0	 0	 0	 1	 1	 0	 138	 2138	 1.1	 0.9;
	 23	 1	 8.468	 2.17	 0	 0	 1	 1	 0	 69	 69	 1.1	 0.9;
	 24	 1	 0	 0	 0	 0	 1	 1	 0	 138	 138	 1.1	 0.9;
	 25	 1	 5.616	 1.488	 0	 0	 1	 1	 0	 138	 138	 1.1	 0.9;
	 26	 1	 7.818	 2.054	 0	 14.9553283936	 1	 1	 0	 69	 69	 1.1	 0.9;
	 27	 1	 10.059	 2.573	 0	 10.0572040689	 1	 1	 0	 69	 69	 1.1	 0.9;
	 28	 1	 6.499	 1.661	 0	 0	 1	 1	 0	 69	 69	 1.1	 0.9;
	 29	 1	 8.226	 2.15	 0	 0.114248573836	 1	 1	 0	 69	 69	 1.1	 0.9;
	 30	 1	 2.91	 0.739	 0	-3.99609199449	 1	 1	 0	 69	 69	 1.1	 0.9;
	 31	 1	 24.62	 6.676	 0	 0	 1	 1	 0	 138	 138	 1.1	 0.9;
	 32	 1	 0	 0	 0	 0	 1	 1	 0	 138	 138	 1.1	 0.9;
	 33	 1	 0	 0	 0	 0	 1	 1	 0	 138	 138	 1.1	 0.9;
	 34	 1	 0	 0	 0	 0	 1	 1	 0	 138	 138	 1.1	 0.9;
	 35	 1	 18.09	 4.675	 0	 0	 1	 1	 0	 69	 69	 1.1	 0.9;
	 36	 1	 9.06	 2.333	 0	 0	 1	 1	 0	 138	 138	 1.1	 0.9;
	 37	 1	 7.634	 1.968	 0	 0	 1	 1	 0	 138	 138	 1.1	 0.9;
	 38	 1	 7.217	 1.843	 0	 0	 1	 1	 0	 138	 138	 1.1	 0.9;
	 39	 1	 8.4	 2.227	 0	 0	 1	 1	 0	 69	 69	 1.1	 0.9;
	 40	 1	 8.643	 2.285	 0	 0	 1	 1	 0	 69	 69	 1.1	 0.9;
	 41	 1	 17.091	 5.539	 0	 0	 1	 1	 0	 69	 69	 1.1	 0.9;
	 42	 1	 7.421	 1.968	 0	 0	 1	 1	 0	 69	 69	 1.1	 0.9;
	 43	 1	 10.02	 2.602	 0	 0	 1	 1	 0	 138	 138	 1.1	 0.9;
	 44	 1	 0	 0	 0	 0	 1	 1	 0	 138	 138	 1.1	 0.9;
	 45	 1	 88.056	 22.608	 0	 64.6682080509	 1	 1	 0	 138	 138	 1.1	 0.9;
	 46	 1	 0	 0	 0	 123.999541678	 1	 1	 0	 138	 138	 1.1	 0.9;
	 47	 1	 0	 0	 0	 47.4286175319	 1	 1	 0	 138	 138	 1.1	 0.9;
	 48	 1	 12.193	 3.216	 0	 0	 1	 1	 0	 69	 69	 1.1	 0.9;
	 49	 1	 0	 0	 0	 0	 1	 1	 0	 138	 138	 1.1	 0.9;
	 50	 1	 13.279	 3.389	 0	 0	 1	 1	 0	 69	 69	 1.1	 0.9;
	 51	 1	 9.855	 2.573	 0	 0	 1	 1	 0	 69	 69	 1.1	 0.9;
	 52	 1	 5.898	 1.507	 0	 0	 1	 1	 0	 138	 138	 1.1	 0.9;
	 53	 1	 0	 0	 0	 0	 1	 1	 0	 138	 138	 1.1	 0.9;
	 54	 1	 15.268	 3.898	 0	 0	 1	 1	 0	 69	 69	 1.1	 0.9;
	 55	 1	 5.995	 1.546	 0	 0	 1	 1	 0	 69	 69	 1.1	 0.9;
	 56	 1	 3.347	 0.864	 0	 0	 1	 1	 0	 69	 69	 1.1	 0.9;
	 57	 1	 0	 0	 0	-13.3913252281	 1	 1	 0	 138	 138	 1.1	 0.9;
	 58	 1	 5.461	 1.43	 0	 0	 1	 1	 0	 138	 138	 1.1	 0.9;
	 59	 1	 0	 0	 0	 0	 1	 1	 0	 138	 138	 1.1	 0.9;
	 60	 1	 10.069	 2.64	 0	 0	 1	 1	 0	 69	 69	 1.1	 0.9;
	 61	 1	 13.939	 3.562	 0	 0	 1	 1	 0	 69	 69	 1.1	 0.9;
	 62	 1	 0	 0	 0	 0	 1	 1	 0	 138	 138	 1.1	 0.9;
	 63	 1	 0	 0	 0	 0	 1	 1	 0	 138	 138	 1.1	 0.9;
	 64	 1	 6.548	 1.738	 0	 0	 1	 1	 0	 69	 69	 1.1	 0.9;
	 65	 1	 6.441	 1.709	 0	 0	 1	 1	 0	 69	 69	 1.1	 0.9;
	 66	 1	 11.368	 2.976	 0	 0	 1	 1	 0	 69	 69	 1.1	 0.9;
	 67	 1	 7.236	 1.872	 0	 0	 1	 1	 0	 69	 69	 1.1	 0.9;
	 68	 1	 0	 0	 0	 0	 1	 1	 0	 138	 138	 1.1	 0.9;
	 69	 1	 5.141	 1.354	 0	 0	 1	 1	 0	 69	 69	 1.1	 0.9;
	 70	 1	 6.858	 1.805	 0	 0	 1	 1	 0	 230	 1	 1.1	 0.9;
	 71	 1	 9.428	 2.429	 0	 0	 1	 1	 0	 230	 1	 1.1	 0.9;
	 72	 1	 3.23	 0.835	 0	 0	 1	 1	 0	 138	 138	 1.1	 0.9;
	 73	 1	 4.394	 1.152	 0	 0	 1	 1	 0	 138	 138	 1.1	 0.9;
	 74	 1	 16.655	 4.262	 0	 0	 1	 1	 0	 138	 138	 1.1	 0.9;
	 75	 1	 5.005	 1.344	 0	 0	 1	 1	 0	 69	 69	 1.1	 0.9;
	 76	 1	 0	 0	 0	 0	 1	 1	 0	 138	 138	 1.1	 0.9;
	 77	 1	 12.542	 3.322	 0	 0	 1	 1	 0	 69	 69	 1.1	 0.9;
	 78	 1	 7.188	 1.901	 0	 0	 1	 1	 0	 69	 69	 1.1	 0.9;
	 79	 1	 4.559	 1.181	 0	 0	 1	 1	 0	 69	 69	 1.1	 0.9;
	 80	 1	 0	 0	 0	 0	 1	 1	 0	 345	 1	 1.1	 0.9;
	 81	 1	 0	 0	 0	 0	 1	 1	 0	 138	 138	 1.1	 0.9;
	 82	 1	 0	 0	 0	 0	 1	 1	 0	 345	 1	 1.1	 0.9;
	 83	 1	 3.133	 0.806	 0	 0	 1	 1	 0	 69	 69	 1.1	 0.9;
	 84	 1	 0	 0	 0	 0	 1	 1	 0	 345	 1	 1.1	 0.9;
	 85	 1	 0	 0	 0	 0	 1	 1	 0	 138	 138	 1.1	 0.9;
	 86	 1	 9.293	 2.419	 0	 0	 1	 1	 0	 345	 1	 1.1	 0.9;
	 87	 1	 8.003	 2.112	 0	 0	 1	 1	 0	 138	 138	 1.1	 0.9;
	 88	 1	 8.681	 2.237	 0	 0	 1	 1	 0	 138	 138	 1.1	 0.9;
	 89	 1	 4.326	 1.114	 0	 0	 1	 1	 0	 138	 138	 1.1	 0.9;
	 90	 1	 9.622	 2.458	 0	 0	 1	 1	 0	 69	 69	 1.1	 0.9;
	 91	 1	 16.936	 4.358	 0	 0	 1	 1	 0	 138	 138	 1.1	 0.9;
	 92	 1	 5.995	 1.939	 0	 0	 1	 1	 0	 69	 69	 1.1	 0.9;
	 93	 1	 0	 0	 0	 0	 1	 1	 0	 138	 138	 1.1	 0.9;
	 94	 1	 7.042	 1.805	 0	 0	 1	 1	 0	 69	 69	 1.1	 0.9;
	 95	 1	 4.249	 1.411	 0	 0	 1	 1	 0	 69	 69	 1.1	 0.9;
	 96	 1	 0	 0	 0	 0	 1	 1	 0	 138	 138	 1.1	 0.9;
	 97	 1	 0	 0	 0	 0	 1	 1	 0	 138	 138	 1.1	 0.9;
	 98	 1	 0	 0	 0	 0	 1	 1	 0	 138	 138	 1.1	 0.9;
	 99	 1	 0	 0	 0	 0	 1	 1	 0	 138	 138	 1.1	 0.9;
	 100	 1	 0	 0	 0	 0	 1	 1	 0	 230	 1	 1.1	 0.9;
	 101	 1	 7.948	 2.05	 0	 0	 1	 1	 0	 69	 69	 1.1	 0.9;
	 102	 1	 9.452	 2.428	 0	 0	 1	 1	 0	 69	 69	 1.1	 0.9;
	 103	 1	 0	 0	 0	 0	 1	 1	 0	 138	 138	 1.1	 0.9;
	 104	 1	 6.642	 1.723	 0	 0	 1	 1	 0	 69	 69	 1.1	 0.9;
	 105	 1	 2.454	 0.653	 0	 0	 1	 1	 0	 69	 69	 1.1	 0.9;
	 106	 1	 5.666	 1.449	 0	 0	 1	 1	 0	 69	 69	 1.1	 0.9;
	 107	 1	 16.291	 3.894	 0	 0	 1	 1	 0	 69	 69	 1.1	 0.9;
	 108	 1	 0	 0	 0	 0	 1	 1	 0	 138	 138	 1.1	 0.9;
	 109	 1	 4.96	 1.299	 0	 0	 1	 1	 0	 69	 69	 1.1	 0.9;
	 110	 1	 8.72	 2.226	 0	 0	 1	 1	 0	 69	 69	 1.1	 0.9;
	 111	 1	 0	 0	 0	 0	 1	 1	 0	 138	 138	 1.1	 0.9;
	 112	 1	 4.888	 1.266	 0	 0	 1	 1	 0	 69	 69	 1.1	 0.9;
	 113	 1	 8.139	 2.115	 0	 0	 1	 1	 0	 69	 69	 1.1	 0.9;
	 114	 1	 4.063	 1.071	 0	 0	 1	 1	 0	 69	 69	 1.1	 0.9;
	 115	 1	 5.534	 1.423	 0	 0	 1	 1	 0	 69	 69	 1.1	 0.9;
	 116	 1	 0	 0	 0	 0	 1	 1	 0	 138	 138	 1.1	 0.9;
	 117	 1	 12.125	 3.158	 0	 0	 1	 1	 0	 138	 138	 1.1	 0.9;
	 118	 1	 3.186	 0.842	 0	 0	 1	 1	 0	 69	 69	 1.1	 0.9;
	 119	 1	 5.086	 1.312	 0	 0	 1	 1	 0	 69	 69	 1.1	 0.9;
	 120	 1	 19.75	 5.226	 0	 0	 1	 1	 0	 138	 138	 1.1	 0.9;
	 121	 1	 10.23	 2.676	 0	 0	 1	 1	 0	 69	 69	 1.1	 0.9;
	 122	 1	 5.461	 1.423	 0	 0	 1	 1	 0	 69	 69	 1.1	 0.9;
	 123	 1	 8.179	 2.102	 0	 0	 1	 1	 0	 69	 69	 1.1	 0.9;
	 124	 1	 13.396	 3.504	 0	 0	 1	 1	 0	 230	 1	 1.1	 0.9;
	 125	 1	 4.433	 1.182	 0	 0	 1	 1	 0	 69	 69	 1.1	 0.9;
	 126	 1	 0	 0	 0	 0	 1	 1	 0	 230	 1	 1.1	 0.9;
	 127	 1	 52.29	 14.962	 0	 0	 1	 1	 0	 345	 1	 1.1	 0.9;
	 128	 1	 11.3	 2.928	 0	 0	 1	 1	 0	 230	 1	 1.1	 0.9;
	 129	 1	 0	 0	 0	 0	 1	 1	 0	 138	 138	 1.1	 0.9;
	 130	 1	 4.149	 1.071	 0	 0	 1	 1	 0	 69	 69	 1.1	 0.9;
	 131	 1	 4.558	 1.175	 0	 0	 1	 1	 0	 69	 69	 1.1	 0.9;
	 132	 1	 4.386	 1.129	 0	 0	 1	 1	 0	 69	 69	 1.1	 0.9;
	 133	 1	 4.558	 1.188	 0	 0	 1	 1	 0	 69	 69	 1.1	 0.9;
	 134	 1	 0	 0	 0	 0	 1	 1	 0	 230	 1	 1.1	 0.9;
	 135	 1	 0	 0	 0	 0	 1	 1	 0	 138	 138	 1.1	 0.9;
	 136	 1	 2.605	 0.672	 0	 0	 1	 1	 0	 69	 69	 1.1	 0.9;
	 137	 1	 4.393	 1.169	 0	 0	 1	 1	 0	 69	 69	 1.1	 0.9;
	 138	 1	 7.159	 1.862	 0	 0	 1	 1	 0	 230	 1	 1.1	 0.9;
	 139	 1	 8.746	 2.239	 0	 0	 1	 1	 0	 69	 69	 1.1	 0.9;
	 140	 1	 18.696	 4.895	 0	 0	 1	 1	 0	 69	 69	 1.1	 0.9;
	 141	 1	 0	 0	 0	 0	 1	 1	 0	 138	 138	 1.1	 0.9;
	 142	 1	 0	 0	 0	 0	 1	 1	 0	 138	 138	 1.1	 0.9;
	 143	 1	 3.265	 0.849	 0	 0	 1	 1	 0	 69	 69	 1.1	 0.9;
	 144	 1	 5.831	 1.514	 0	 0	 1	 1	 0	 69	 69	 1.1	 0.9;
	 145	 1	 3.747	 0.979	 0	 0	 1	 1	 0	 69	 69	 1.1	 0.9;
	 146	 1	 4.901	 1.306	 0	 0	 1	 1	 0	 69	 69	 1.1	 0.9;
	 147	 1	 0	 0	 0	 0	 1	 1	 0	 138	 138	 1.1	 0.9;
	 148	 1	 6.728	 1.782	 0	 0	 1	 1	 0	 69	 69	 1.1	 0.9;
	 149	 1	 6.563	 1.704	 0	 0	 1	 1	 0	 69	 69	 1.1	 0.9;
	 150	 1	 10.085	 2.631	 0	 0	 1	 1	 0	 69	 69	 1.1	 0.9;
	 151	 1	 2.5	 0.666	 0	 0	 1	 1	 0	 69	 69	 1.1	 0.9;
	 152	 1	 3.839	 1.012	 0	 0	 1	 1	 0	 69	 69	 1.1	 0.9;
	 153	 1	 0	 0	 0	 0	 1	 1	 0	 138	 138	 1.1	 0.9;
	 154	 1	 2.047	 0.538	 0	 0	 1	 1	 0	 69	 69	 1.1	 0.9;
	 155	 1	 0	 0	 0	 0	 1	 1	 0	 138	 138	 1.1	 0.9;
	 156	 1	 4.986	 1.286	 0	 0	 1	 1	 0	 138	 138	 1.1	 0.9;
	 157	 1	 4.637	 1.2	 0	 0	 1	 1	 0	 138	 138	 1.1	 0.9;
	 158	 1	 6.324	 1.613	 0	 0	 1	 1	 0	 138	 138	 1.1	 0.9;
	 159	 1	 6.936	 1.843	 0	 0	 1	 1	 0	 138	 138	 1.1	 0.9;
	 160	 1	 13.89	 3.6	 0	 0	 1	 1	 0	 138	 138	 1.1	 0.9;
	 161	 1	 66.145	 19.794	 0	 0	 1	 1	 0	 345	 1	 1.1	 0.9;
	 162	 1	 176.736	 37.175	 0	 0	 1	 1	 0	 345	 1	 1.1	 0.9;
	 163	 1	 8.274	 2.17	 0	 0	 1	 1	 0	 345	 1	 1.1	 0.9;
	 164	 1	 3.628	 0.941	 0	 0	 1	 1	 0	 138	 138	 1.1	 0.9;
	 165	 1	 6.092	 1.565	 0	 0	 1	 1	 0	 345	 1	 1.1	 0.9;
	 166	 1	 15.51	 4.061	 0	 0	 1	 1	 0	 345	 1	 1.1	 0.9;
	 167	 1	 0	 0	 0	 0	 1	 1	 0	 345	 1	 1.1	 0.9;
	 168	 1	 5.005	 1.325	 0	 0	 1	 1	 0	 69	 69	 1.1	 0.9;
	 169	 1	 0	 0	 0	 0	 1	 1	 0	 138	 138	 1.1	 0.9;
	 170	 1	 3.094	 0.809	 0	 0	 1	 1	 0	 69	 69	 1.1	 0.9;
	 171	 1	 0	 0	 0	 0	 1	 1	 0	 138	 138	 1.1	 0.9;
	 172	 1	 5.409	 1.397	 0	 0	 1	 1	 0	 69	 69	 1.1	 0.9;
	 173	 1	 5.356	 1.364	 0	 0	 1	 1	 0	 69	 69	 1.1	 0.9;
	 174	 1	 0	 0	 0	 0	 1	 1	 0	 138	 138	 1.1	 0.9;
	 175	 1	 4.584	 1.188	 0	 0	 1	 1	 0	 69	 69	 1.1	 0.9;
	 176	 1	 1.464	 0.379	 0	 0	 1	 1	 0	 69	 69	 1.1	 0.9;
	 177	 1	 4.182	 1.116	 0	 0	 1	 1	 0	 69	 69	 1.1	 0.9;
	 178	 1	 3.476	 0.92	 0	 0	 1	 1	 0	 69	 69	 1.1	 0.9;
	 179	 1	 12.929	 3.428	 0	 0	 1	 1	 0	 69	 69	 1.1	 0.9;
	 180	 1	 0	 0	 0	 0	 1	 1	 0	 345	 1	 1.1	 0.9;
	 181	 1	 3.127	 0.816	 0	 0	 1	 1	 0	 69	 69	 1.1	 0.9;
	 182	 1	 22.784	 5.998	 0	 0	 1	 1	 0	 69	 69	 1.1	 0.9;
	 183	 1	 0	 0	 0	 0	 1	 1	 0	 138	 138	 1.1	 0.9;
	 184	 1	 4.316	 1.142	 0	 0	 1	 1	 0	 69	 69	 1.1	 0.9;
	 185	 1	 4.472	 1.181	 0	 0	 1	 1	 0	 69	 69	 1.1	 0.9;
	 186	 1	 0	 0	 0	 0	 1	 1	 0	 138	 138	 1.1	 0.9;
	 187	 1	 7.1	 1.824	 0	 0	 1	 1	 0	 138	 138	 1.1	 0.9;
	 188	 1	 6.848	 1.814	 0	 0	 1	 1	 0	 138	 138	 1.1	 0.9;
	 189	 1	 2.668	 0.682	 0	 0	 1	 1	 0	 230	 1	 1.1	 0.9;
	 190	 1	 5.335	 1.402	 0	 0	 1	 1	 0	 230	 1	 1.1	 0.9;
	 191	 1	 8.342	 2.122	 0	 0	 1	 1	 0	 138	 138	 1.1	 0.9;
	 192	 1	 5.432	 1.402	 0	 0	 1	 1	 0	 230	 1	 1.1	 0.9;
	 193	 1	 8.439	 2.17	 0	 0	 1	 1	 0	 230	 1	 1.1	 0.9;
	 194	 1	 14.026	 3.648	 0	 0	 1	 1	 0	 138	 138	 1.1	 0.9;
	 195	 1	 0	 0	 0	 0	 1	 1	 0	 138	 138	 1.1	 0.9;
	 196	 1	 4.336	 1.142	 0	 0	 1	 1	 0	 138	 138	 1.1	 0.9;
	 197	 1	 7.508	 1.92	 0	 0	 1	 1	 0	 230	 1	 1.1	 0.9;
	 198	 1	 18.731	 4.704	 0	 0	 1	 1	 0	 138	 138	 1.1	 0.9;
	 199	 1	 39.343	 10.022	 0	 0	 1	 1	 0	 230	 1	 1.1	 0.9;
	 200	 1	 0	 0	 0	 0	 1	 1	 0	 138	 138	 1.1	 0.9;
...
];

mpc_regionR2.gen = [
%	bus         Pg          Qg          Qmax        Qmin        Vg          mBase       status      Pmax        Pmin        Pc1         Pc2         Qc1min      Qc1max      Qc2min      Qc2max      ramp_agc    ramp_10     ramp_30     ramp_q      apf         
	 3	 344	 42.7	 274.1	-188.7	 1	 100	 1	 566	 122;
	 6	 270.5	 33.65	 216	-148.7	 1	 100	 1	 446	 95;
	 9	 33.2	 3.9	 24.9	-17.1	 1	 100	 1	 51.4	 15;
	 9	 31.7	 7.4	 31.9	-17.1	 1	 100	 1	 51.4	 12;
	 9	 31.7	 7.4	 31.9	-17.1	 1	 100	 1	 51.4	 12;
	 9	 31.7	 7.4	 31.9	-17.1	 1	 100	 1	 51.4	 12;
	 9	 31.7	 7.4	 31.9	-17.1	 1	 100	 1	 51.4	 12;
	 10	 132	 29.2	 126.4	-68	 1	 100	 1	 204	 60;
	 12	 201.15	 34.7	 150.2	-80.8	 1	 100	 1	 242.3	 160;
	 12	 133.1	 26.95	 116.6	-62.7	 1	 100	 1	 188.2	 78;
	 13	 135.55	 24.5	 106	-57	 1	 100	 1	 171.1	 100;
	 13	 135.55	 24.5	 106	-57	 1	 100	 1	 171.1	 100;
	 13	 135.55	 24.5	 106	-57	 1	 100	 1	 171.1	 100;
	 13	 135.55	 24.5	 106	-57	 1	 100	 1	 171.1	 100;
	 15	 79	 19.5	 84.3	-45.3	 1	 100	 1	 136	 22;
	 15	 205.5	 26.5	 170	-117	 1	 100	 1	 351	 60;
	 16	 36.75	 8.65	 37.5	-20.2	 1	 100	 1	 60.5	 13;
	 17	 71.06	 13.25	 64.4	-37.9	 1	 100	 1	 113.7	 28.42;
	 17	 38.7	 8.25	 35.6	-19.1	 1	 100	 1	 57.4	 20;
	 17	 38.7	 8.25	 35.6	-19.1	 1	 100	 1	 57.4	 20;
	 17	 38.7	 8.25	 35.6	-19.1	 1	 100	 1	 57.4	 20;
	 17	 38.7	 8.25	 35.6	-19.1	 1	 100	 1	 57.4	 20;
	 17	 48.19	 9.05	 43.1	-25	 1	 100	 1	 75	 21.38;
	 19	 227.5	 30.6	 196.2	-135	 1	 100	 1	 405	 50;
	 19	 185.5	 45.95	 198.9	-107	 1	 100	 1	 321	 50;
	 20	 30.55	 7	 30.4	-16.4	 1	 100	 1	 49.1	 12;
	 20	 30.55	 7	 30.4	-16.4	 1	 100	 1	 49.1	 12;
	 21	 14.4	 16.9115	 40.423	-6.6	 1	 100	 1	 19.8	 9;
	 21	 14.4	 16.9115	 40.423	-6.6	 1	 100	 1	 19.8	 9;
	 22	 13.5	 28.1555	 63.611	-7.3	 1	 100	 1	 22	 5;
	 22	 33	 34.2055	 86.411	-18	 1	 100	 1	 54	 12;
	 856	 570.75	 49.95	 320.4	-220.5	 1	 100	 1	 661.5	 480;
	 858	 565.3	 0	 214.4	-214.4	 1	 100	 1	 590.6	 540;
	 859	 584	 66.25	 425.2	-292.7	 1	 100	 1	 878	 290;
	 861	 320	 34.75	 222.8	-153.3	 1	 100	 1	 460	 180;
	 861	 387.5	 46.45	 297.9	-205	 1	 100	 1	 615	 160;
	 865	 258	 33.65	 216	-148.7	 1	 100	 1	 446	 70;
	 867	 285.5	 33.65	 216	-148.7	 1	 100	 1	 446	 125;
	 867	 305.5	 36.7	 235.4	-162	 1	 100	 1	 486	 125;
	 868	 195.85	 34.6	 149.8	-80.6	 1	 100	 1	 241.7	 150;
	 868	 195.85	 34.6	 149.8	-80.6	 1	 100	 1	 241.7	 150;
	 868	 201.4	 36.2	 156.7	-84.3	 1	 100	 1	 252.8	 150;
	 868	 201.4	 36.2	 156.7	-84.3	 1	 100	 1	 252.8	 150;
	 874	 211.6	 53.45	 231.3	-124.4	 1	 100	 1	 373.2	 50;
	 874	 134.5	 27.05	 117.1	-63	 1	 100	 1	 189	 80;
	 874	 134.5	 27.05	 117.1	-63	 1	 100	 1	 189	 80;
	 874	 134.5	 27.05	 117.1	-63	 1	 100	 1	 189	 80;
	 881	 27.9975	 7.95	 28.6	-12.7	 1	 100	 1	 38.125	 17.87;
	 881	 27.9975	 7.95	 28.6	-12.7	 1	 100	 1	 38.125	 17.87;
	 881	 27.9975	 7.95	 28.6	-12.7	 1	 100	 1	 38.125	 17.87;
	 881	 20.65	 6	 21.6	-9.6	 1	 100	 1	 28.8	 12.5;
	 884	 50.25	 3.85	 24.9	-17.2	 1	 100	 1	 51.5	 49;
	 884	 50.25	 3.85	 24.9	-17.2	 1	 100	 1	 51.5	 49;
	 884	 50.25	 3.85	 24.9	-17.2	 1	 100	 1	 51.5	 49;
	 884	 50.25	 3.85	 24.9	-17.2	 1	 100	 1	 51.5	 49;
	 885	 28.6	 7.05	 30.5	-16.4	 1	 100	 1	 49.2	 8;
];

mpc_regionR2.branch = [
%	fbus        tbus        r           x           b           rateA       rateB       rateC       ratio       angle       status      angmin      angmax      
	 1	 2	 4.33822e-05	 0.000215026	 0.00183926	 373.15	 439	 439	 0	 0	 1	-30	 30;
	 1	 778	 0.0101696	 0.0448705	 0.365922	 338.3	 398	 398	 0	 0	 1	-30	 30;
	 2	 841	 0.00422275	 0.0261532	 0.427791	 676.6	 796	 796	 0	 0	 1	-30	 30;
	 2	 1077	 0.0322007	 0.121703	 1.00775	 301.75	 355	 355	 0	 0	 1	-30	 30;
	 3	 5	 1.74293e-05	 0.000125447	 0.00452276	 675.75	 795	 795	 0	 0	 1	-30	 30;
	 3	 162	 0.000246458	 0.00353297	 0.244061	 1275	 1500	 1500	 0	 0	 1	-30	 30;
	 3	 167	 0.000139121	 0.00201321	 0.136434	 1275	 1500	 1500	 0	 0	 1	-30	 30;
	 3	 859	 1e-07	 0.0001	 0	 1275	 1500	 1500	 0	 0	 1	-30	 30;
	 3	 859	 1e-07	 0.0001	 0	 1275	 1500	 1500	 0	 0	 1	-30	 30;
	 4	 477	 0.00496165	 0.0346161	 1.3674	 675.75	 795	 795	 0	 0	 1	-30	 30;
	 4	 861	 1e-07	 0.0001	 0	 1232.5	 1450	 1450	 0	 0	 1	-30	 30;
	 5	 7	 4.67441e-06	 0.0001	 0.00147256	 733.55	 863	 863	 0	 0	 1	-30	 30;
	 5	 864	 1e-07	 0.0001	 0	 467.5	 550	 550	 0	 0	 1	-30	 30;
	 6	 414	 0.00122214	 0.0116623	 0.00472646	 345	 345	 345	 0	 0	 1	-30	 30;
	 6	 415	 0.00487693	 0.0270475	 0.0140758	 293.93	 345.75	 345.75	 0	 0	 1	-30	 30;
	 7	 867	 1e-07	 0.0001	 0	 1100	 1100	 1100	 0	 0	 1	-30	 30;
	 8	 162	 0.00229418	 0.015903	 0.622385	 675.75	 795	 795	 0	 0	 1	-30	 30;
	 8	 448	 0.000423871	 0.00305097	 0.110006	 675.75	 795	 795	 0	 0	 1	-30	 30;
	 8	 477	 0.000898138	 0.00642145	 0.23483	 675.75	 795	 795	 0	 0	 1	-30	 30;
	 8	 868	 1e-07	 0.0001	 0	 595	 700	 700	 0	 0	 1	-30	 30;
	 9	 742	 0.00300525	 0.0144255	 0.00689716	 215.73	 253.84	 253.84	 0	 0	 1	-30	 30;
	 9	 771	 0.00594792	 0.014559	 0.00398288	 202	 202	 202	 0	 0	 1	-30	 30;
	 9	 1119	 0.0138899	 0.0657489	 0.0158134	 148.75	 175	 175	 0	 0	 1	-30	 30;
	 9	 1135	 0.00270798	 0.0258641	 0.00949514	 260.95	 307	 307	 0	 0	 1	-30	 30;
	 9	 1147	 0.00343329	 0.022049	 0.015101	 323.85	 381	 381	 0	 0	 1	-30	 30;
	 10	 698	 0.005824	 0.049347	 0.096257	 481.95	 567	 567	 0	 0	 1	-30	 30;
	 11	 162	 0.00187762	 0.0130081	 0.508679	 675.75	 795	 795	 0	 0	 1	-30	 30;
	 11	 477	 8.11867e-05	 0.000561827	 0.0219343	 675.75	 795	 795	 0	 0	 1	-30	 30;
	 11	 874	 1e-07	 0.0001	 0	 680	 800	 800	 0	 0	 1	-30	 30;
	 12	 19	 0.00143395	 0.0115346	 0.0952013	 487.9	 574	 574	 0	 0	 1	-30	 30;
	 12	 447	 0.00735421	 0.0407577	 0.342126	 392.7	 462	 462	 0	 0	 1	-30	 30;
	 12	 733	 0.00144528	 0.00910803	 0.143033	 676.6	 796	 796	 0	 0	 1	-30	 30;
	 12	 1077	 0.0316206	 0.125018	 0.941749	 301.75	 355	 355	 0	 0	 1	-30	 30;
	 13	 127	 0.00496703	 0.0189051	 0.14336	 392.27	 461.5	 461.5	 0	 0	 1	-30	 30;
	 13	 380	 0.00390184	 0.0250047	 0.222319	 436.05	 513	 513	 0	 0	 1	-30	 30;
	 13	 447	 0.00302128	 0.0116934	 0.0856305	 301.75	 355	 355	 0	 0	 1	-30	 30;
	 14	 587	 0.00143491	 0.00385222	 0.000873035	 100.3	 118	 118	 0	 0	 1	-30	 30;
	 14	 589	 0.000935004	 0.00359713	 0.000982477	 135.15	 159	 159	 0	 0	 1	-30	 30;
	 14	 590	 0.000144756	 0.000718238	 0.000273981	 207.4	 244	 244	 0	 0	 1	-30	 30;
	 14	 744	 0.0104158	 0.0279635	 0.00633766	 100.3	 118	 118	 0	 0	 1	-30	 30;
	 15	 33	 0.013609	 0.0476241	 0.0157849	 135.15	 159	 159	 0	 0	 1	-30	 30;
	 15	 34	 0.00201677	 0.0163178	 0.00672989	 241.4	 284	 284	 0	 0	 1	-30	 30;
	 15	 36	 0.00552278	 0.0323487	 0.00881197	 174.25	 205	 205	 0	 0	 1	-30	 30;
	 15	 36	 0.005523	 0.032349	 0.008812	 174.25	 205	 205	 0	 0	 1	-30	 30;
	 16	 38	 0.0136617	 0.0478411	 0.0211962	 148.75	 175	 175	 0	 0	 1	-30	 30;
	 16	 462	 0.0149368	 0.0560411	 0.01612	 159.2	 187.27	 187.27	 0	 0	 1	-30	 30;
	 16	 553	 0.0098897	 0.0435776	 0.0121125	 148.75	 175	 175	 0	 0	 1	-30	 30;
	 17	 227	 0.00151164	 0.00849354	 0.00251651	 244	 244	 244	 0	 0	 1	-30	 30;
	 17	 238	 0.00576257	 0.0220794	 0.00998607	 216.75	 255.02	 255.02	 0	 0	 1	-30	 30;
	 18	 411	 0.0315592	 0.0772724	 0.0211467	 100.3	 118	 118	 0	 0	 1	-30	 30;
	 18	 413	 0.018933	 0.0601276	 0.0168716	 120.7	 142	 142	 0	 0	 1	-30	 30;
	 18	 556	 0.0344413	 0.0799773	 0.0243755	 100.3	 118	 118	 0	 0	 1	-30	 30;
	 18	 557	 0.00928621	 0.0357279	 0.0097591	 135.15	 159	 159	 0	 0	 1	-30	 30;
	 19	 733	 6.96203e-05	 0.00114166	 0.0112073	 824.5	 970	 970	 0	 0	 1	-30	 30;
	 20	 387	 0.0164756	 0.0435455	 0.0101934	 100.3	 118	 118	 0	 0	 1	-30	 30;
	 20	 391	 0.0077924	 0.0267314	 0.00640415	 120.7	 142	 142	 0	 0	 1	-30	 30;
	 20	 1016	 0.00890171	 0.025261	 0.00635068	 108.8	 128	 128	 0	 0	 1	-30	 30;
	 21	 414	 0.0105671	 0.0423098	 0.0106601	 194.4	 228.75	 228.75	 0	 0	 1	-30	 30;
	 21	 415	 0.00318781	 0.00977929	 0.00423803	 135.15	 159	 159	 0	 0	 1	-30	 30;
	 21	 416	 0.00517507	 0.0201327	 0.0053773	 135.15	 159	 159	 0	 0	 1	-30	 30;
	 22	 398	 0.000200851	 0.00129583	 0.000659925	 239.28	 281.5	 281.5	 0	 0	 1	-30	 30;
	 22	 1017	 0.000704201	 0.00446014	 0.00121048	 186.15	 219	 219	 0	 0	 1	-30	 30;
	 23	 243	 0.20616	 0.199231	 0.00289312	 44	 44	 49	 0	 0	 1	-30	 30;
	 23	 886	 0.08256	 0.182747	 0.00299684	 48.45	 57	 57	 0	 0	 1	-30	 30;
	 24	 242	 0.0193331	 0.0473275	 0.0129489	 100.3	 118	 118	 0	 0	 1	-30	 30;
	 25	 466	 0.0195989	 0.0754212	 0.0206073	 175.7	 206.7	 206.7	 0	 0	 1	-30	 30;
	 25	 1154	 0.0160067	 0.0622818	 0.0166387	 135.15	 159	 159	 0	 0	 1	-30	 30;
	 26	 27	 0.172758	 0.164607	 0.00246081	 44	 44	 49	 0	 0	 1	-30	 30;
	 26	 28	 0.465506	 0.450229	 0.00653908	 44	 44	 49	 0	 0	 1	-30	 30;
	 26	 29	 0.10964	 0.251935	 0.0038274	 48.45	 57	 57	 0	 0	 1	-30	 30;
	 26	 1078	 0.653836	 0.614417	 0.0094931	 44	 44	 49	 0	 0	 1	-30	 30;
	 27	 530	 0.497233	 0.45856	 0.00735308	 44	 44	 49	 0	 0	 1	-30	 30;
	 27	 537	 0.335381	 0.30909	 0.00495581	 44	 44	 49	 0	 0	 1	-30	 30;
	 28	 1069	 0.394227	 0.3634	 0.00582677	 44	 44	 49	 0	 0	 1	-30	 30;
	 29	 30	 0.0560878	 0.124143	 0.00203568	 48.45	 57	 57	 0	 0	 1	-30	 30;
	 29	 563	 0.1316	 0.302423	 0.00459483	 48.45	 57	 57	 0	 0	 1	-30	 30;
	 30	 565	 0.113813	 0.239255	 0.00435981	 48.45	 57	 57	 0	 0	 1	-30	 30;
	 31	 32	 0.00420699	 0.0258503	 0.00945206	 254.15	 299	 299	 0	 0	 1	-30	 30;
	 32	 696	 0.00492338	 0.0271129	 0.00978901	 186.15	 219	 219	 0	 0	 1	-30	 30;
	 33	 34	 0.0144396	 0.0371207	 0.00919247	 100.3	 118	 118	 0	 0	 1	-30	 30;
	 34	 37	 0.0130822	 0.0576491	 0.0160252	 148.75	 175	 175	 0	 0	 1	-30	 30;
	 36	 551	 0.0195475	 0.104205	 0.0292651	 164.05	 193	 193	 0	 0	 1	-30	 30;
	 37	 38	 0.00570986	 0.0251582	 0.00699217	 148.75	 175	 175	 0	 0	 1	-30	 30;
	 39	 1149	 0.0612597	 0.268454	 0.0057734	 78.2	 92	 92	 0	 0	 1	-30	 30;
	 40	 417	 0.0866497	 0.245928	 0.00386489	 54.4	 64	 64	 0	 0	 1	-30	 30;
	 41	 892	 0.165847	 0.169038	 0.00219765	 69	 69	 78	 0	 0	 1	-30	 30;
	 42	 61	 0.0705589	 0.064993	 0.00104199	 44	 44	 49	 0	 0	 1	-30	 30;
	 42	 890	 0.0850015	 0.0782973	 0.00125529	 69	 69	 78	 0	 0	 1	-30	 30;
	 43	 44	 0.016555	 0.0384316	 0.0117093	 100.3	 118	 118	 0	 0	 1	-30	 30;
	 43	 451	 0.0319446	 0.0942148	 0.0219272	 108.8	 128	 128	 0	 0	 1	-30	 30;
	 43	 560	 0.024075	 0.0558945	 0.0170318	 100.3	 118	 118	 0	 0	 1	-30	 30;
	 44	 47	 0.00914015	 0.0248852	 0.00548259	 100.3	 118	 118	 0	 0	 1	-30	 30;
	 44	 52	 0.00395408	 0.00917843	 0.00279622	 100.3	 118	 118	 0	 0	 1	-30	 30;
	 45	 46	 0.00527801	 0.0134228	 0.00339613	 100.3	 118	 118	 0	 0	 1	-30	 30;
	 45	 47	 0.00752668	 0.020989	 0.00440545	 100.3	 118	 118	 0	 0	 1	-30	 30;
	 46	 47	 0.00235016	 0.00674056	 0.00165855	 108.8	 128	 128	 0	 0	 1	-30	 30;
	 47	 49	 0.00798529	 0.021104	 0.0049398	 100.3	 118	 118	 0	 0	 1	-30	 30;
	 47	 53	 0.00229711	 0.00803754	 0.00266356	 135.15	 159	 159	 0	 0	 1	-30	 30;
	 48	 50	 0.0905776	 0.083434	 0.00133764	 44	 44	 49	 0	 0	 1	-30	 30;
	 48	 894	 0.0544156	 0.0501227	 0.00080358	 44	 44	 49	 0	 0	 1	-30	 30;
	 49	 57	 0.00526938	 0.0134009	 0.00339057	 100.3	 118	 118	 0	 0	 1	-30	 30;
	 49	 58	 0.00468667	 0.0163988	 0.00543448	 135.15	 159	 159	 0	 0	 1	-30	 30;
	 50	 54	 0.0782169	 0.0755754	 0.00109742	 44	 44	 49	 0	 0	 1	-30	 30;
	 51	 56	 0.0408924	 0.040011	 0.000565913	 44	 44	 49	 0	 0	 1	-30	 30;
	 51	 895	 0.0279342	 0.0229921	 0.0004659	 44	 44	 49	 0	 0	 1	-30	 30;
	 52	 53	 0.00272097	 0.00691981	 0.00175078	 100.3	 118	 118	 0	 0	 1	-30	 30;
	 53	 57	 0.00781398	 0.0209781	 0.00475441	 100.3	 118	 118	 0	 0	 1	-30	 30;
	 53	 59	 0.00801583	 0.023538	 0.0177311	 199.75	 235	 235	 0	 0	 1	-30	 30;
	 54	 56	 0.0328248	 0.0328326	 0.000443575	 44	 44	 49	 0	 0	 1	-30	 30;
	 54	 896	 0.0733349	 0.0675502	 0.00108298	 44	 44	 49	 0	 0	 1	-30	 30;
	 54	 897	 0.0336996	 0.112422	 0.00178203	 60.35	 71	 71	 0	 0	 1	-30	 30;
	 54	 1179	 0.563768	 0.552424	 0.007816	 44	 44	 49	 0	 0	 1	-30	 30;
	 55	 56	 0.0204412	 0.0214776	 0.000262023	 44	 44	 49	 0	 0	 1	-30	 30;
	 55	 896	 0.0204693	 0.0217839	 0.000258866	 44	 44	 49	 0	 0	 1	-30	 30;
	 58	 87	 0.0104593	 0.0386757	 0.0114585	 135.15	 159	 159	 0	 0	 1	-30	 30;
	 59	 62	 0.0133849	 0.0354793	 0.0143994	 120.7	 142	 142	 0	 0	 1	-30	 30;
	 59	 88	 0.0106972	 0.0248316	 0.00756525	 100.3	 118	 118	 0	 0	 1	-30	 30;
	 60	 61	 0.0570175	 0.0570316	 0.00077051	 44	 44	 49	 0	 0	 1	-30	 30;
	 62	 63	 0.0113101	 0.0262547	 0.00799884	 100.3	 118	 118	 0	 0	 1	-30	 30;
	 62	 902	 0.0149804	 0.0385112	 0.00953687	 100.3	 118	 118	 0	 0	 1	-30	 30;
	 63	 89	 0.0288227	 0.0784914	 0.0172977	 100.3	 118	 118	 0	 0	 1	-30	 30;
	 63	 901	 0.00564805	 0.0149269	 0.00349388	 100.3	 118	 118	 0	 0	 1	-30	 30;
	 63	 902	 0.00294306	 0.00780042	 0.00316549	 120.7	 142	 142	 0	 0	 1	-30	 30;
	 64	 65	 0.0176792	 0.0192308	 0.000218456	 44	 44	 49	 0	 0	 1	-30	 30;
	 64	 75	 0.0123167	 0.0316612	 0.000489996	 50.15	 59	 59	 0	 0	 1	-30	 30;
	 65	 66	 0.0138745	 0.033095	 0.000465741	 48.45	 57	 57	 0	 0	 1	-30	 30;
	 66	 67	 0.0291091	 0.0301508	 0.000379017	 44	 44	 49	 0	 0	 1	-30	 30;
	 66	 909	 0.0475373	 0.119501	 0.00193499	 50.15	 59	 59	 0	 0	 1	-30	 30;
	 67	 69	 0.0900336	 0.0829328	 0.00132961	 44	 44	 49	 0	 0	 1	-30	 30;
	 67	 900	 0.0102251	 0.0214904	 0.000391522	 48.45	 57	 57	 0	 0	 1	-30	 30;
	 68	 72	 0.002015	 0.00548594	 0.0012086	 100.3	 118	 118	 0	 0	 1	-30	 30;
	 68	 73	 0.00203039	 0.0067732	 0.00171774	 120.7	 142	 142	 0	 0	 1	-30	 30;
	 69	 1158	 0.36685	 0.338129	 0.0054215	 44	 44	 49	 0	 0	 1	-30	 30;
	 70	 71	 0.000584792	 0.0017637	 0.00302208	 181.05	 213	 213	 0	 0	 1	-30	 30;
	 70	 1157	 0.0117131	 0.03624	 0.0590203	 412	 412	 412	 0	 0	 1	-30	 30;
	 73	 76	 0.00182093	 0.00634602	 0.00147145	 120.7	 142	 142	 0	 0	 1	-30	 30;
	 74	 906	 0.00772057	 0.0204635	 0.00830456	 120.7	 142	 142	 0	 0	 1	-30	 30;
	 75	 90	 0.00487618	 0.0154829	 0.000271464	 60.35	 71	 71	 0	 0	 1	-30	 30;
	 76	 85	 0.001957	 0.0051869	 0.00210489	 120.7	 142	 142	 0	 0	 1	-30	 30;
	 76	 908	 0.00441426	 0.0137975	 0.00399636	 120.7	 142	 142	 0	 0	 1	-30	 30;
	 77	 791	 0.209972	 0.477281	 0.00742502	 48.45	 57	 57	 0	 0	 1	-30	 30;
	 77	 907	 0.0189208	 0.0574554	 0.00078641	 54.4	 64	 64	 0	 0	 1	-30	 30;
	 78	 79	 0.0164975	 0.0151958	 0.000243623	 44	 44	 49	 0	 0	 1	-30	 30;
	 78	 907	 0.0350487	 0.0322834	 0.000517576	 69	 69	 78	 0	 0	 1	-30	 30;
	 79	 910	 0.0186119	 0.0192779	 0.000242336	 44	 44	 49	 0	 0	 1	-30	 30;
	 80	 82	 0.000582285	 0.00225326	 0.0164967	 301.75	 355	 355	 0	 0	 1	-30	 30;
	 80	 84	 0.00105499	 0.00408252	 0.0298899	 301.75	 355	 355	 0	 0	 1	-30	 30;
	 80	 86	 0.00176501	 0.00652262	 0.0524402	 301.75	 355	 355	 0	 0	 1	-30	 30;
	 81	 453	 0.0161192	 0.0426034	 0.00997285	 100.3	 118	 118	 0	 0	 1	-30	 30;
	 81	 542	 0.0232223	 0.047531	 0.0187175	 100.3	 118	 118	 0	 0	 1	-30	 30;
	 81	 906	 0.0034329	 0.00882459	 0.00218514	 100.3	 118	 118	 0	 0	 1	-30	 30;
	 81	 908	 0.00487909	 0.0110673	 0.00353258	 100.3	 118	 118	 0	 0	 1	-30	 30;
	 83	 909	 0.0328961	 0.033226	 0.000440037	 44	 44	 49	 0	 0	 1	-30	 30;
	 83	 910	 0.0165562	 0.0161993	 0.000229121	 44	 44	 49	 0	 0	 1	-30	 30;
	 86	 789	 0.00294432	 0.010882	 0.0875011	 301.75	 355	 355	 0	 0	 1	-30	 30;
	 87	 88	 0.026307	 0.0610785	 0.0186122	 100.3	 118	 118	 0	 0	 1	-30	 30;
	 87	 570	 0.0335992	 0.136833	 0.0333737	 135.15	 159	 159	 0	 0	 1	-30	 30;
	 88	 89	 0.0120856	 0.0276409	 0.0107974	 108.8	 128	 128	 0	 0	 1	-30	 30;
	 89	 848	 0.0152709	 0.0457337	 0.0103031	 108.8	 128	 128	 0	 0	 1	-30	 30;
	 91	 93	 0.00148732	 0.00572201	 0.00156284	 135.15	 159	 159	 0	 0	 1	-30	 30;
	 91	 96	 0.00167625	 0.00592492	 0.00133505	 120.7	 142	 142	 0	 0	 1	-30	 30;
	 91	 97	 0.00218675	 0.00889842	 0.00216796	 135.15	 159	 159	 0	 0	 1	-30	 30;
	 92	 201	 0.0213834	 0.0449424	 0.000818787	 48.45	 57	 57	 0	 0	 1	-30	 30;
	 92	 245	 0.00580121	 0.0232152	 0.00049012	 74.8	 88	 88	 0	 0	 1	-30	 30;
	 92	 911	 0.00907759	 0.0168786	 0.000395056	 48.45	 57	 57	 0	 0	 1	-30	 30;
	 92	 958	 0.00433249	 0.0196672	 0.000426606	 80.75	 95	 95	 0	 0	 1	-30	 30;
	 93	 246	 0.00384419	 0.0101595	 0.00237798	 100.3	 118	 118	 0	 0	 1	-30	 30;
	 93	 346	 0.00177243	 0.00721245	 0.0017572	 135.15	 159	 159	 0	 0	 1	-30	 30;
	 94	 95	 0.00343842	 0.0137598	 0.000290497	 74.8	 88	 88	 0	 0	 1	-30	 30;
	 94	 997	 0.00567409	 0.013171	 0.000250783	 50.15	 59	 59	 0	 0	 1	-30	 30;
	 95	 912	 0.00246326	 0.0138405	 0.000256294	 87.55	 103	 103	 0	 0	 1	-30	 30;
	 96	 97	 0.00104238	 0.00401022	 0.0010953	 135.15	 159	 159	 0	 0	 1	-30	 30;
	 97	 937	 0.00190906	 0.0122181	 0.00411068	 195.5	 230	 230	 0	 0	 1	-30	 30;
	 98	 99	 0.00295488	 0.0125056	 0.00377235	 148.75	 175	 175	 0	 0	 1	-30	 30;
...